<?xml version="1.0" encoding="UTF-8"?>

<!-- generated on 2023-11-27 23:10:28.938018 by osmWebWizard.py v1_18_0+0000-03ecfdea036
<configuration>
    <net-file value="C:\Users\owner\Sumo\2023-11-27-23-10-20\osm.net.xml.gz"/>
    <output-trip-file value="C:\Users\owner\Sumo\2023-11-27-23-10-20\osm.truck.trips.xml"/>
    <route-file value="C:\Users\owner\Sumo\2023-11-27-23-10-20\osm.truck.rou.xml"/>
    <prefix value="truck"/>
    <trip-attributes value="departLane=&quot;best&quot;"/>
    <fringe-start-attributes value="departSpeed=&quot;max&quot;"/>
    <vehicle-class value="truck"/>
    <fringe-factor value="3"/>
    <vclass value="truck"/>
    <via-edge-types value="highway.motorway,highway.motorway_link,highway.trunk_link,highway.primary_link,highway.secondary_link,highway.tertiary_link"/>
    <min-distance value="600.0"/>
    <min-distance.fringe value="10.0"/>
    <remove-loops value="True"/>
    <validate value="True"/>
    <insertion-density value="30.0"/>
</configuration>
-->

<!-- generated on 2023-11-27 23:10:28 by Eclipse SUMO duarouter Version 1.18.0
<configuration xmlns:xsi="http://www.w3.org/2001/XMLSchema-instance" xsi:noNamespaceSchemaLocation="http://sumo.dlr.de/xsd/duarouterConfiguration.xsd">

    <input>
        <net-file value="C:\Users\owner\Sumo\2023-11-27-23-10-20\osm.net.xml.gz"/>
        <route-files value="C:\Users\owner\Sumo\2023-11-27-23-10-20\osm.truck.trips.xml"/>
    </input>

    <output>
        <output-file value="C:\Users\owner\Sumo\2023-11-27-23-10-20\osm.truck.trips.xml.tmp"/>
        <alternatives-output value="NUL"/>
        <write-trips value="true"/>
    </output>

    <processing>
        <remove-loops value="true"/>
    </processing>

    <time>
        <begin value="0.0"/>
        <end value="3600.0"/>
    </time>

    <report>
        <no-warnings value="true"/>
        <ignore-errors value="true"/>
        <no-step-log value="true"/>
    </report>

</configuration>
-->

<routes xmlns:xsi="http://www.w3.org/2001/XMLSchema-instance" xsi:noNamespaceSchemaLocation="http://sumo.dlr.de/xsd/routes_file.xsd">
    <vType id="truck_truck" vClass="truck"/>
    <trip id="truck1" type="truck_truck" depart="4.30" departLane="best" departSpeed="max" from="517282317#0" to="452636498#7"/>
    <trip id="truck6" type="truck_truck" depart="25.79" departLane="best" from="22894723#1" to="22894594#2"/>
    <trip id="truck16" type="truck_truck" depart="68.76" departLane="best" departSpeed="max" from="22894596" to="452636498#5"/>
    <trip id="truck18" type="truck_truck" depart="77.36" departLane="best" from="-22894744#0" to="38323569#1"/>
    <trip id="truck23" type="truck_truck" depart="98.85" departLane="best" departSpeed="max" from="22894596" to="1000624457#1"/>
    <trip id="truck32" type="truck_truck" depart="137.52" departLane="best" from="-452636498#6" to="22894594#2"/>
    <trip id="truck35" type="truck_truck" depart="150.42" departLane="best" from="-452636498#6" to="22894594#2"/>
    <trip id="truck38" type="truck_truck" depart="163.31" departLane="best" departSpeed="max" from="22894596" to="1000624457#1"/>
    <trip id="truck40" type="truck_truck" depart="171.90" departLane="best" from="965359267" to="1000624457#1"/>
    <trip id="truck46" type="truck_truck" depart="197.69" departLane="best" from="965382833#2" to="452636498#7"/>
    <trip id="truck48" type="truck_truck" depart="206.29" departLane="best" from="460561515#0" to="38323569#1"/>
    <trip id="truck51" type="truck_truck" depart="219.18" departLane="best" departSpeed="max" from="965359259" to="484667608"/>
    <trip id="truck55" type="truck_truck" depart="236.37" departLane="best" from="-452636498#4" to="22894594#2"/>
    <trip id="truck56" type="truck_truck" depart="240.67" departLane="best" departSpeed="max" from="-452636498#11" to="22894597#0"/>
    <trip id="truck57" type="truck_truck" depart="244.96" departLane="best" departSpeed="max" from="22894721#0" to="22894723#1"/>
    <trip id="truck58" type="truck_truck" depart="249.26" departLane="best" departSpeed="max" from="436693572#0" to="1028542371#2"/>
    <trip id="truck59" type="truck_truck" depart="253.56" departLane="best" from="22894594#1" to="452636498#7"/>
    <trip id="truck63" type="truck_truck" depart="270.75" departLane="best" from="22894726#2" to="452636498#7"/>
    <trip id="truck67" type="truck_truck" depart="287.94" departLane="best" departSpeed="max" from="22894596" to="-965939908#2"/>
    <trip id="truck69" type="truck_truck" depart="296.54" departLane="best" departSpeed="max" from="965359259" to="1000624457#1"/>
    <trip id="truck71" type="truck_truck" depart="305.13" departLane="best" departSpeed="max" from="22894723#0" to="452636498#7"/>
    <trip id="truck76" type="truck_truck" depart="326.62" departLane="best" from="452245665#1" to="38323569#1"/>
    <trip id="truck77" type="truck_truck" depart="330.92" departLane="best" departSpeed="max" from="965359259" to="22894726#0"/>
    <trip id="truck78" type="truck_truck" depart="335.21" departLane="best" from="461097294#0" to="22894594#2"/>
    <trip id="truck79" type="truck_truck" depart="339.51" departLane="best" departSpeed="max" from="22894596" to="1000624457#1"/>
    <trip id="truck80" type="truck_truck" depart="343.81" departLane="best" departSpeed="max" from="22894721#0" to="1000624457#0"/>
    <trip id="truck81" type="truck_truck" depart="348.11" departLane="best" departSpeed="max" from="436693572#0" to="22894594#2"/>
    <trip id="truck82" type="truck_truck" depart="352.40" departLane="best" from="965382833#2" to="38323569#1"/>
    <trip id="truck85" type="truck_truck" depart="365.30" departLane="best" departSpeed="max" from="965359259" to="452245665#3"/>
    <trip id="truck88" type="truck_truck" depart="378.19" departLane="best" departSpeed="max" from="965359259" to="436695031#1"/>
    <trip id="truck90" type="truck_truck" depart="386.79" departLane="best" from="461097292#0" to="22894594#2"/>
    <trip id="truck91" type="truck_truck" depart="391.08" departLane="best" departSpeed="max" from="436682108" to="-452636498#1"/>
    <trip id="truck92" type="truck_truck" depart="395.38" departLane="best" from="22894726#1" to="452636498#7"/>
    <trip id="truck94" type="truck_truck" depart="403.98" departLane="best" departSpeed="max" from="965359259" to="452246358#1"/>
    <trip id="truck97" type="truck_truck" depart="416.87" departLane="best" departSpeed="max" from="22894721#0" to="22894721#1"/>
    <trip id="truck98" type="truck_truck" depart="421.17" departLane="best" departSpeed="max" from="436693572#0" to="38323569#1"/>
    <trip id="truck99" type="truck_truck" depart="425.46" departLane="best" from="22894726#2" to="452636498#7"/>
    <trip id="truck100" type="truck_truck" depart="429.76" departLane="best" departSpeed="max" from="517282317#0" to="483638949#1"/>
    <trip id="truck106" type="truck_truck" depart="455.55" departLane="best" departSpeed="max" from="22894596" to="-452636498#0"/>
    <trip id="truck118" type="truck_truck" depart="507.12" departLane="best" departSpeed="max" from="965382857#0" to="1028542371#2"/>
    <trip id="truck128" type="truck_truck" depart="550.10" departLane="best" departSpeed="max" from="22894596" to="165087293#0"/>
    <trip id="truck129" type="truck_truck" depart="554.39" departLane="best" departSpeed="max" from="22894596" to="22894723#1"/>
    <trip id="truck131" type="truck_truck" depart="562.99" departLane="best" from="436693571" to="38323569#1"/>
    <trip id="truck133" type="truck_truck" depart="571.58" departLane="best" departSpeed="max" from="-452636498#11" to="22894594#2"/>
    <trip id="truck139" type="truck_truck" depart="597.37" departLane="best" from="461097292#1" to="22894594#2"/>
    <trip id="truck141" type="truck_truck" depart="605.96" departLane="best" departSpeed="max" from="965359259" to="1000624457#1"/>
    <trip id="truck151" type="truck_truck" depart="648.94" departLane="best" from="436693568#0" to="38323569#1"/>
    <trip id="truck155" type="truck_truck" depart="666.13" departLane="best" departSpeed="max" from="-452636498#11" to="1000624457#0"/>
    <trip id="truck158" type="truck_truck" depart="679.02" departLane="best" from="965359271" to="38323569#1"/>
    <trip id="truck159" type="truck_truck" depart="683.32" departLane="best" from="436682107" to="22894594#2"/>
    <trip id="truck160" type="truck_truck" depart="687.62" departLane="best" departSpeed="max" from="22894596" to="-452636498#0"/>
    <trip id="truck161" type="truck_truck" depart="691.92" departLane="best" departSpeed="max" from="965359259" to="22894594#2"/>
    <trip id="truck165" type="truck_truck" depart="709.11" departLane="best" from="22894743#1" to="38323569#1"/>
    <trip id="truck167" type="truck_truck" depart="717.70" departLane="best" from="436682107" to="452636498#7"/>
    <trip id="truck169" type="truck_truck" depart="726.30" departLane="best" departSpeed="max" from="-452636498#11" to="484667608"/>
    <trip id="truck170" type="truck_truck" depart="730.60" departLane="best" departSpeed="max" from="965359259" to="165087293#1"/>
    <trip id="truck173" type="truck_truck" depart="743.49" departLane="best" departSpeed="max" from="965939908#0" to="22894594#2"/>
    <trip id="truck176" type="truck_truck" depart="756.38" departLane="best" departSpeed="max" from="-452636498#11" to="484667608"/>
    <trip id="truck178" type="truck_truck" depart="764.98" departLane="best" departSpeed="max" from="22894596" to="1000624457#1"/>
    <trip id="truck180" type="truck_truck" depart="773.57" departLane="best" from="452636498#3" to="452636498#7"/>
    <trip id="truck183" type="truck_truck" depart="786.46" departLane="best" from="436682105" to="452636498#7"/>
    <trip id="truck188" type="truck_truck" depart="807.95" departLane="best" departSpeed="max" from="22894721#0" to="965382811#1"/>
    <trip id="truck193" type="truck_truck" depart="829.44" departLane="best" from="460561515#0" to="38323569#1"/>
    <trip id="truck194" type="truck_truck" depart="833.74" departLane="best" departSpeed="max" from="517282317#0" to="483638949#1"/>
    <trip id="truck196" type="truck_truck" depart="842.33" departLane="best" departSpeed="max" from="436682108" to="38323569#1"/>
    <trip id="truck202" type="truck_truck" depart="868.12" departLane="best" from="1000624456" to="452636498#7"/>
    <trip id="truck203" type="truck_truck" depart="872.42" departLane="best" departSpeed="max" from="517282317#0" to="965382773"/>
    <trip id="truck204" type="truck_truck" depart="876.71" departLane="best" from="460561514#0" to="452636498#7"/>
    <trip id="truck206" type="truck_truck" depart="885.31" departLane="best" departSpeed="max" from="22894721#0" to="1000624457#1"/>
    <trip id="truck208" type="truck_truck" depart="893.91" departLane="best" departSpeed="max" from="22894721#0" to="22894597#0"/>
    <trip id="truck209" type="truck_truck" depart="898.20" departLane="best" departSpeed="max" from="436682108" to="165087293#1"/>
    <trip id="truck210" type="truck_truck" depart="902.50" departLane="best" departSpeed="max" from="22894596" to="452636498#5"/>
    <trip id="truck212" type="truck_truck" depart="911.10" departLane="best" from="965376412#2" to="38323569#1"/>
    <trip id="truck213" type="truck_truck" depart="915.39" departLane="best" departSpeed="max" from="517282317#0" to="965376721#1"/>
    <trip id="truck217" type="truck_truck" depart="932.58" departLane="best" departSpeed="max" from="965359259" to="165087293#0"/>
    <trip id="truck218" type="truck_truck" depart="936.88" departLane="best" departSpeed="max" from="965359259" to="965382811#0"/>
    <trip id="truck222" type="truck_truck" depart="954.07" departLane="best" departSpeed="max" from="965359259" to="452245665#3"/>
    <trip id="truck225" type="truck_truck" depart="966.96" departLane="best" from="436693568#1" to="38323569#1"/>
    <trip id="truck231" type="truck_truck" depart="992.75" departLane="best" departSpeed="max" from="22894596" to="22894726#2"/>
    <trip id="truck238" type="truck_truck" depart="1022.83" departLane="best" from="965382833#2" to="452636498#5"/>
    <trip id="truck243" type="truck_truck" depart="1044.32" departLane="best" departSpeed="max" from="517282317#0" to="165087293#1"/>
    <trip id="truck249" type="truck_truck" depart="1070.11" departLane="best" departSpeed="max" from="-452636498#11" to="-452636498#1"/>
    <trip id="truck254" type="truck_truck" depart="1091.60" departLane="best" departSpeed="max" from="965359259" to="1000624456"/>
    <trip id="truck256" type="truck_truck" depart="1100.19" departLane="best" departSpeed="max" from="436682108" to="452636498#3"/>
    <trip id="truck270" type="truck_truck" depart="1160.36" departLane="best" departSpeed="max" from="-452636498#11" to="22894594#0"/>
    <trip id="truck273" type="truck_truck" depart="1173.25" departLane="best" departSpeed="max" from="22894723#0" to="452636498#7"/>
    <trip id="truck276" type="truck_truck" depart="1186.14" departLane="best" departSpeed="max" from="965382857#0" to="38323569#1"/>
    <trip id="truck277" type="truck_truck" depart="1190.44" departLane="best" departSpeed="max" from="22894723#0" to="452636498#7"/>
    <trip id="truck278" type="truck_truck" depart="1194.74" departLane="best" from="965382811#1" to="452636498#7"/>
    <trip id="truck279" type="truck_truck" depart="1199.04" departLane="best" departSpeed="max" from="965939908#0" to="452636498#7"/>
    <trip id="truck282" type="truck_truck" depart="1211.93" departLane="best" departSpeed="max" from="436682108" to="38323569#1"/>
    <trip id="truck285" type="truck_truck" depart="1224.82" departLane="best" departSpeed="max" from="-452636498#11" to="1000624457#1"/>
    <trip id="truck290" type="truck_truck" depart="1246.31" departLane="best" from="1176284081#2" to="452636498#7"/>
    <trip id="truck292" type="truck_truck" depart="1254.91" departLane="best" departSpeed="max" from="965359259" to="22894597#1"/>
    <trip id="truck299" type="truck_truck" depart="1284.99" departLane="best" departSpeed="max" from="965359259" to="452636498#7"/>
    <trip id="truck301" type="truck_truck" depart="1293.58" departLane="best" from="436693568#1" to="22894594#2"/>
    <trip id="truck302" type="truck_truck" depart="1297.88" departLane="best" from="22894728#1" to="452636498#7"/>
    <trip id="truck303" type="truck_truck" depart="1302.18" departLane="best" from="965359263" to="38323569#1"/>
    <trip id="truck305" type="truck_truck" depart="1310.77" departLane="best" from="965382833#0" to="22894594#2"/>
    <trip id="truck307" type="truck_truck" depart="1319.37" departLane="best" departSpeed="max" from="22894596" to="452636498#2"/>
    <trip id="truck308" type="truck_truck" depart="1323.67" departLane="best" departSpeed="max" from="436682108" to="1028542371#2"/>
    <trip id="truck309" type="truck_truck" depart="1327.96" departLane="best" from="22894594#0" to="452636498#7"/>
    <trip id="truck314" type="truck_truck" depart="1349.45" departLane="best" departSpeed="max" from="965359259" to="452245665#1"/>
    <trip id="truck316" type="truck_truck" depart="1358.05" departLane="best" departSpeed="max" from="22894721#0" to="-965939908#2"/>
    <trip id="truck317" type="truck_truck" depart="1362.35" departLane="best" departSpeed="max" from="965359259" to="22894597#1"/>
    <trip id="truck320" type="truck_truck" depart="1375.24" departLane="best" departSpeed="max" from="965359259" to="965382811#0"/>
    <trip id="truck321" type="truck_truck" depart="1379.54" departLane="best" departSpeed="max" from="-452636498#11" to="22894594#2"/>
    <trip id="truck322" type="truck_truck" depart="1383.83" departLane="best" from="-452636498#1" to="22894594#2"/>
    <trip id="truck327" type="truck_truck" depart="1405.32" departLane="best" departSpeed="max" from="22894723#0" to="461097294#0"/>
    <trip id="truck331" type="truck_truck" depart="1422.51" departLane="best" departSpeed="max" from="22894721#0" to="-965939908#2"/>
    <trip id="truck333" type="truck_truck" depart="1431.11" departLane="best" from="436682107" to="22894594#2"/>
    <trip id="truck336" type="truck_truck" depart="1444.00" departLane="best" departSpeed="max" from="965359259" to="219035198#2"/>
    <trip id="truck339" type="truck_truck" depart="1456.89" departLane="best" departSpeed="max" from="22894721#0" to="-965939908#2"/>
    <trip id="truck340" type="truck_truck" depart="1461.19" departLane="best" departSpeed="max" from="965359259" to="22894594#0"/>
    <trip id="truck343" type="truck_truck" depart="1474.08" departLane="best" from="1176284082#0" to="22894594#2"/>
    <trip id="truck353" type="truck_truck" depart="1517.06" departLane="best" departSpeed="max" from="22894723#0" to="452636498#7"/>
    <trip id="truck357" type="truck_truck" depart="1534.25" departLane="best" departSpeed="max" from="22894596" to="-965939908#2"/>
    <trip id="truck361" type="truck_truck" depart="1551.44" departLane="best" from="22894597#1" to="22894594#2"/>
    <trip id="truck362" type="truck_truck" depart="1555.74" departLane="best" departSpeed="max" from="22894596" to="452636498#3"/>
    <trip id="truck364" type="truck_truck" depart="1564.33" departLane="best" departSpeed="max" from="436682108" to="452636498#3"/>
    <trip id="truck366" type="truck_truck" depart="1572.93" departLane="best" from="22894594#0" to="22894594#2"/>
    <trip id="truck369" type="truck_truck" depart="1585.82" departLane="best" departSpeed="max" from="965359259" to="1176284082#0"/>
    <trip id="truck370" type="truck_truck" depart="1590.12" departLane="best" from="22894726#0" to="22894594#2"/>
    <trip id="truck373" type="truck_truck" depart="1603.01" departLane="best" from="452636498#0" to="452636498#7"/>
    <trip id="truck379" type="truck_truck" depart="1628.80" departLane="best" departSpeed="max" from="965359259" to="452636498#7"/>
    <trip id="truck381" type="truck_truck" depart="1637.39" departLane="best" from="460561514#1" to="452636498#7"/>
    <trip id="truck383" type="truck_truck" depart="1645.99" departLane="best" departSpeed="max" from="22894723#0" to="965382812#1"/>
    <trip id="truck388" type="truck_truck" depart="1667.48" departLane="best" from="461097291" to="452636498#7"/>
    <trip id="truck391" type="truck_truck" depart="1680.37" departLane="best" from="1176284081#2" to="452636498#7"/>
    <trip id="truck392" type="truck_truck" depart="1684.67" departLane="best" departSpeed="max" from="22894723#0" to="484667608"/>
    <trip id="truck399" type="truck_truck" depart="1714.75" departLane="best" from="1176284082#0" to="452636498#7"/>
    <trip id="truck400" type="truck_truck" depart="1719.05" departLane="best" departSpeed="max" from="517282317#0" to="1028542371#2"/>
    <trip id="truck402" type="truck_truck" depart="1727.64" departLane="best" from="461097291" to="22894594#2"/>
    <trip id="truck415" type="truck_truck" depart="1783.51" departLane="best" from="461097294#0" to="452636498#7"/>
    <trip id="truck416" type="truck_truck" depart="1787.81" departLane="best" departSpeed="max" from="22894596" to="22894726#2"/>
    <trip id="truck420" type="truck_truck" depart="1805.00" departLane="best" departSpeed="max" from="436682108" to="-452636498#2"/>
    <trip id="truck422" type="truck_truck" depart="1813.60" departLane="best" departSpeed="max" from="965359259" to="22894594#2"/>
    <trip id="truck423" type="truck_truck" depart="1817.89" departLane="best" departSpeed="max" from="965359259" to="22894721#1"/>
    <trip id="truck425" type="truck_truck" depart="1826.49" departLane="best" departSpeed="max" from="965359259" to="1176284081#2"/>
    <trip id="truck426" type="truck_truck" depart="1830.79" departLane="best" departSpeed="max" from="22894721#0" to="22894594#0"/>
    <trip id="truck429" type="truck_truck" depart="1843.68" departLane="best" departSpeed="max" from="22894596" to="484667608"/>
    <trip id="truck432" type="truck_truck" depart="1856.57" departLane="best" departSpeed="max" from="965359259" to="436695031#0"/>
    <trip id="truck434" type="truck_truck" depart="1865.17" departLane="best" from="1176284081#2" to="452636498#7"/>
    <trip id="truck435" type="truck_truck" depart="1869.46" departLane="best" departSpeed="max" from="22894596" to="22894726#0"/>
    <trip id="truck442" type="truck_truck" depart="1899.55" departLane="best" departSpeed="max" from="-452636498#11" to="-452636498#6"/>
    <trip id="truck444" type="truck_truck" depart="1908.14" departLane="best" departSpeed="max" from="965359259" to="1176284081#0"/>
    <trip id="truck450" type="truck_truck" depart="1933.93" departLane="best" departSpeed="max" from="965382857#0" to="1028542371#2"/>
    <trip id="truck453" type="truck_truck" depart="1946.82" departLane="best" departSpeed="max" from="22894721#0" to="-965939908#2"/>
    <trip id="truck456" type="truck_truck" depart="1959.71" departLane="best" from="965376412#2" to="38323569#1"/>
    <trip id="truck457" type="truck_truck" depart="1964.01" departLane="best" departSpeed="max" from="436693572#0" to="22894594#2"/>
    <trip id="truck465" type="truck_truck" depart="1998.39" departLane="best" departSpeed="max" from="-452636498#11" to="-452636498#0"/>
    <trip id="truck466" type="truck_truck" depart="2002.69" departLane="best" from="461097291" to="22894594#2"/>
    <trip id="truck468" type="truck_truck" depart="2011.29" departLane="best" departSpeed="max" from="965359259" to="460561514#0"/>
    <trip id="truck473" type="truck_truck" depart="2032.77" departLane="best" departSpeed="max" from="22894721#0" to="452636498#7"/>
    <trip id="truck474" type="truck_truck" depart="2037.07" departLane="best" departSpeed="max" from="22894596" to="22894721#1"/>
    <trip id="truck480" type="truck_truck" depart="2062.86" departLane="best" departSpeed="max" from="-452636498#11" to="-452636498#2"/>
    <trip id="truck486" type="truck_truck" depart="2088.64" departLane="best" departSpeed="max" from="965382857#0" to="38323569#1"/>
    <trip id="truck489" type="truck_truck" depart="2101.54" departLane="best" departSpeed="max" from="965939908#0" to="452636498#7"/>
    <trip id="truck490" type="truck_truck" depart="2105.83" departLane="best" departSpeed="max" from="22894596" to="1000624456"/>
    <trip id="truck495" type="truck_truck" depart="2127.32" departLane="best" from="965382811#1" to="22894594#2"/>
    <trip id="truck497" type="truck_truck" depart="2135.92" departLane="best" departSpeed="max" from="22894721#0" to="165087293#0"/>
    <trip id="truck498" type="truck_truck" depart="2140.21" departLane="best" departSpeed="max" from="22894721#0" to="219035198#1"/>
    <trip id="truck502" type="truck_truck" depart="2157.41" departLane="best" departSpeed="max" from="517282317#0" to="965376408#0"/>
    <trip id="truck505" type="truck_truck" depart="2170.30" departLane="best" from="460561514#0" to="22894594#2"/>
    <trip id="truck506" type="truck_truck" depart="2174.60" departLane="best" departSpeed="max" from="965359259" to="-965939908#2"/>
    <trip id="truck509" type="truck_truck" depart="2187.49" departLane="best" departSpeed="max" from="436693572#0" to="22894594#2"/>
    <trip id="truck510" type="truck_truck" depart="2191.79" departLane="best" departSpeed="max" from="22894723#0" to="22894726#2"/>
    <trip id="truck515" type="truck_truck" depart="2213.27" departLane="best" departSpeed="max" from="436682108" to="165087293#1"/>
    <trip id="truck516" type="truck_truck" depart="2217.57" departLane="best" departSpeed="max" from="436682108" to="452636498#7"/>
    <trip id="truck517" type="truck_truck" depart="2221.87" departLane="best" departSpeed="max" from="22894596" to="-452636498#0"/>
    <trip id="truck518" type="truck_truck" depart="2226.17" departLane="best" departSpeed="max" from="22894721#0" to="1000624457#1"/>
    <trip id="truck521" type="truck_truck" depart="2239.06" departLane="best" departSpeed="max" from="-452636498#11" to="-452636498#0"/>
    <trip id="truck526" type="truck_truck" depart="2260.55" departLane="best" departSpeed="max" from="22894596" to="461097291"/>
    <trip id="truck527" type="truck_truck" depart="2264.85" departLane="best" departSpeed="max" from="436682108" to="1000624457#0"/>
    <trip id="truck529" type="truck_truck" depart="2273.44" departLane="best" departSpeed="max" from="-452636498#11" to="22894721#1"/>
    <trip id="truck531" type="truck_truck" depart="2282.04" departLane="best" departSpeed="max" from="22894596" to="965382811#1"/>
    <trip id="truck537" type="truck_truck" depart="2307.82" departLane="best" departSpeed="max" from="22894596" to="-965939908#2"/>
    <trip id="truck549" type="truck_truck" depart="2359.39" departLane="best" from="436693571" to="1028542371#2"/>
    <trip id="truck551" type="truck_truck" depart="2367.99" departLane="best" departSpeed="max" from="22894721#0" to="484667608"/>
    <trip id="truck552" type="truck_truck" depart="2372.29" departLane="best" departSpeed="max" from="965359259" to="452245665#3"/>
    <trip id="truck553" type="truck_truck" depart="2376.58" departLane="best" departSpeed="max" from="461097293" to="38323569#1"/>
    <trip id="truck559" type="truck_truck" depart="2402.37" departLane="best" from="965359272#2" to="38323569#1"/>
    <trip id="truck560" type="truck_truck" depart="2406.67" departLane="best" departSpeed="max" from="22894596" to="452636498#7"/>
    <trip id="truck561" type="truck_truck" depart="2410.96" departLane="best" departSpeed="max" from="517282317#0" to="1028542371#1"/>
    <trip id="truck571" type="truck_truck" depart="2453.94" departLane="best" departSpeed="max" from="461097293" to="452245665#3"/>
    <trip id="truck573" type="truck_truck" depart="2462.54" departLane="best" departSpeed="max" from="436682108" to="452636498#7"/>
    <trip id="truck583" type="truck_truck" depart="2505.51" departLane="best" departSpeed="max" from="517282317#0" to="38323569#1"/>
    <trip id="truck588" type="truck_truck" depart="2527.00" departLane="best" departSpeed="max" from="22894596" to="-965939908#2"/>
    <trip id="truck589" type="truck_truck" depart="2531.30" departLane="best" departSpeed="max" from="436682108" to="452636498#7"/>
    <trip id="truck593" type="truck_truck" depart="2548.49" departLane="best" from="-22894744#0" to="38323569#1"/>
    <trip id="truck596" type="truck_truck" depart="2561.38" departLane="best" departSpeed="max" from="22894596" to="452636498#3"/>
    <trip id="truck599" type="truck_truck" depart="2574.27" departLane="best" departSpeed="max" from="-452636498#11" to="1000624457#1"/>
    <trip id="truck604" type="truck_truck" depart="2595.76" departLane="best" departSpeed="max" from="436682108" to="165087293#1"/>
    <trip id="truck605" type="truck_truck" depart="2600.06" departLane="best" departSpeed="max" from="436682108" to="452636498#7"/>
    <trip id="truck606" type="truck_truck" depart="2604.36" departLane="best" from="965359262#1" to="38323569#1"/>
    <trip id="truck609" type="truck_truck" depart="2617.25" departLane="best" from="965359262#1" to="38323569#1"/>
    <trip id="truck610" type="truck_truck" depart="2621.55" departLane="best" from="436693568#1" to="38323569#1"/>
    <trip id="truck611" type="truck_truck" depart="2625.85" departLane="best" departSpeed="max" from="22894721#0" to="-452636498#1"/>
    <trip id="truck615" type="truck_truck" depart="2643.04" departLane="best" departSpeed="max" from="-484667608" to="22894594#2"/>
    <trip id="truck618" type="truck_truck" depart="2655.93" departLane="best" departSpeed="max" from="965359259" to="1000624457#1"/>
    <trip id="truck619" type="truck_truck" depart="2660.23" departLane="best" departSpeed="max" from="22894723#0" to="461097294#0"/>
    <trip id="truck621" type="truck_truck" depart="2668.82" departLane="best" departSpeed="max" from="436682108" to="1028542371#2"/>
    <trip id="truck622" type="truck_truck" depart="2673.12" departLane="best" from="22894726#2" to="22894594#2"/>
    <trip id="truck624" type="truck_truck" depart="2681.72" departLane="best" from="22894726#2" to="452636498#7"/>
    <trip id="truck629" type="truck_truck" depart="2703.20" departLane="best" from="965382812#1" to="22894594#2"/>
    <trip id="truck633" type="truck_truck" depart="2720.39" departLane="best" from="965382833#0" to="452636498#3"/>
    <trip id="truck638" type="truck_truck" depart="2741.88" departLane="best" departSpeed="max" from="517282317#0" to="1028542371#2"/>
    <trip id="truck642" type="truck_truck" depart="2759.07" departLane="best" from="460561515#0" to="38323569#1"/>
    <trip id="truck649" type="truck_truck" depart="2789.16" departLane="best" departSpeed="max" from="436682108" to="165087293#0"/>
    <trip id="truck654" type="truck_truck" depart="2810.64" departLane="best" departSpeed="max" from="22894596" to="22894726#0"/>
    <trip id="truck656" type="truck_truck" depart="2819.24" departLane="best" departSpeed="max" from="965382857#0" to="1028542371#2"/>
    <trip id="truck663" type="truck_truck" depart="2849.32" departLane="best" departSpeed="max" from="965359259" to="219035198#0"/>
    <trip id="truck665" type="truck_truck" depart="2857.92" departLane="best" from="461097292#1" to="22894594#2"/>
    <trip id="truck666" type="truck_truck" depart="2862.22" departLane="best" departSpeed="max" from="-452636498#11" to="22894726#2"/>
    <trip id="truck671" type="truck_truck" depart="2883.70" departLane="best" departSpeed="max" from="22894723#0" to="965382812#1"/>
    <trip id="truck672" type="truck_truck" depart="2888.00" departLane="best" departSpeed="max" from="436693572#0" to="1028542371#2"/>
    <trip id="truck678" type="truck_truck" depart="2913.79" departLane="best" departSpeed="max" from="436682108" to="22894597#0"/>
    <trip id="truck681" type="truck_truck" depart="2926.68" departLane="best" departSpeed="max" from="22894721#0" to="-452636498#0"/>
    <trip id="truck685" type="truck_truck" depart="2943.87" departLane="best" departSpeed="max" from="-452636498#11" to="965382811#1"/>
    <trip id="truck686" type="truck_truck" depart="2948.17" departLane="best" departSpeed="max" from="965359259" to="1000624456"/>