<?xml version="1.0" encoding="UTF-8"?>

<!-- generated on 2023-11-29 11:36:17.228597 by randomTrips.py v1_18_0+0000-03ecfdea036
<configuration>
    <net-file value="osm.net.xml.gz"/>
    <output-trip-file value="osm.pedestrian.trips.xml"/>
    <route-file value="osm.pedestrian.rou.xml"/>
    <pedestrians value="True"/>
    <prefix value="ped"/>
    <vehicle-class value="pedestrian"/>
    <fringe-factor value="2"/>
    <max-distance value="2000.0"/>
    <insertion-density value="80.0"/>
</configuration>
-->

<!-- generated on 2023-11-29 11:36:16 by Eclipse SUMO duarouter Version 1.18.0
<configuration xmlns:xsi="http://www.w3.org/2001/XMLSchema-instance" xsi:noNamespaceSchemaLocation="http://sumo.dlr.de/xsd/duarouterConfiguration.xsd">

    <input>
        <net-file value="osm.net.xml.gz"/>
        <route-files value="osm.pedestrian.trips.xml"/>
    </input>

    <output>
        <output-file value="osm.pedestrian.rou.xml"/>
        <alternatives-output value="NUL"/>
    </output>

    <time>
        <begin value="0.0"/>
        <end value="3600.0"/>
    </time>

    <report>
        <no-warnings value="true"/>
        <ignore-errors value="true"/>
        <no-step-log value="true"/>
    </report>

</configuration>
-->

<routes xmlns:xsi="http://www.w3.org/2001/XMLSchema-instance" xsi:noNamespaceSchemaLocation="http://sumo.dlr.de/xsd/routes_file.xsd">
    <vType id="ped_pedestrian" vClass="pedestrian"/>
    <person id="ped0" type="ped_pedestrian" depart="0.00">
        <walk edges="965382772 965382770#1 965382770#0 965382769 965376453#2 965376453#0 965382790#1 965376428 965382814#0 965382814#2 965382814#3 965939919 965939916#1 965939915#1 965939915#0 965939913#0 -461097292#2 -461097291 -219035198#0"/>
    </person>
    <person id="ped1" type="ped_pedestrian" depart="1.75">
        <walk edges="258325695#1 258325697 -22894594#1 22894594#2"/>
    </person>
    <person id="ped2" type="ped_pedestrian" depart="3.50">
        <walk edges="965382802#0 965382803#0 965382803#2 965382796 965382797#1 965382787#0"/>
    </person>
    <person id="ped3" type="ped_pedestrian" depart="5.25">
        <walk edges="965939909 965939911#0 -436693572#2"/>
    </person>
    <person id="ped4" type="ped_pedestrian" depart="7.00">
        <walk edges="965376416#1 965376419#0 965376419#1 965376420 965376421#0 965376421#1 965376423 965382816#3 965382816#2 965382816#0 965939922#2 965939918#2 965939915#1 965939915#0 965939913#0 -461097292#2 -461097291 -219035198#0 -219035198#1 -219035198#2"/>
    </person>
    <person id="ped5" type="ped_pedestrian" depart="8.75">
        <walk edges="165087293#0 -452636498#4 258325695#0 258325695#1 219035198#0 -461097291 -461097292#2 965939913#0 965939915#0 965939915#1 965939918#2 965939922#2 965382816#0 965382816#2 965382816#3 965376423 965376438#1 965376436#1 965376436#0"/>
    </person>
    <person id="ped6" type="ped_pedestrian" depart="10.50">
        <walk edges="-219035198#1 -219035198#0 -461097291 -461097292#2 965939913#0 965939915#0 965939915#1 965939918#2 965939922#2 965382820 -965382834#1 1073889956#1 1073889957"/>
    </person>
    <person id="ped7" type="ped_pedestrian" depart="12.25">
        <walk edges="965382779 965382769 965376453#2 965376453#0 965376431#2 965376431#0 965376432 965376435#0 965376435#1 965376441 965382852#1 965376444#1 965376443"/>
    </person>
    <person id="ped8" type="ped_pedestrian" depart="14.01">
        <walk edges="165087293#0 -452636498#4 258325695#0 258325695#1 219035198#0 -461097291 -461097292#2 965939913#0 965939915#0 965939915#1 965939916#1 965939919 965382814#3 965382814#2 965382814#0 965376428 965382790#1 965376431#2 965376431#0 965376455#2"/>
    </person>
    <person id="ped9" type="ped_pedestrian" depart="15.76">
        <walk edges="965382815#3 965939922#2 965939918#2 965939915#1 965939915#0 965939913#0 -461097292#2 -461097291 -219035198#0 -219035198#1 -219035198#2 -1000624457#0"/>
    </person>
    <person id="ped10" type="ped_pedestrian" depart="17.51">
        <walk edges="965382815#2 965382815#0 965382814#3 965382814#2 965382814#0 965382795#1 965382795#0 965382794"/>
    </person>
    <person id="ped11" type="ped_pedestrian" depart="19.26">
        <walk edges="965371533#2 965371533#1 965376456 965376454#2 965376453#0 965382790#1 965376428 965376427#2 965376427#1 965376425#2 965376425#0 965382816#3 965382816#2 965382816#0 965382820 -965382834#1"/>
    </person>
    <person id="ped12" type="ped_pedestrian" depart="21.01">
        <walk edges="965939915#1 965939916#1 965939919 965382814#3 965382814#2 965382814#0 965376428 965382790#1 965376453#0 965376454#2 965376456 965371533#1 965371533#2 965371533#3 965371534#1"/>
    </person>
    <person id="ped13" type="ped_pedestrian" depart="22.76">
        <walk edges="-452636498#0 -452636498#1 -452636498#2 -452636498#4 -452636498#6 -452636498#11"/>
    </person>
    <person id="ped14" type="ped_pedestrian" depart="24.51">
        <walk edges="965382824 965382823#1 965382821#1 965382820 965382816#0 965382816#2 965382816#3 965376423 965376421#1 965376421#0 965376420 965376443 965376444#1 965376446#0 965376446#1 965376413#0 965376409#1 965376409#0 965376406#1 965376405#1 965376722#0 965376722#1"/>
    </person>
    <person id="ped15" type="ped_pedestrian" depart="26.26">
        <walk edges="965382815#2 965382815#0 965382817 965382809#0 965382802#2 965382802#0"/>
    </person>
    <person id="ped16" type="ped_pedestrian" depart="28.01">
        <walk edges="965376441 965376435#1 965376435#0 965376436#0 965376436#1 965376438#1 965376423 965382816#3 965382816#2 965382816#0 965939922#2 965939918#2 965939918#0"/>
    </person>
    <person id="ped17" type="ped_pedestrian" depart="29.76">
        <walk edges="965376409#0 965376409#1 965376413#0 965376446#1 965376446#0"/>
    </person>
    <person id="ped18" type="ped_pedestrian" depart="31.51">
        <walk edges="965382817 965382814#3 965382814#2 965382814#0 965376428 965382790#1 965376453#0 965376453#2 965382769 965382770#0"/>
    </person>
    <person id="ped19" type="ped_pedestrian" depart="33.26">
        <walk edges="965382850#0 965376444#1 965382852#1 965376441 965376435#1 965376435#0 965376432 965376431#0 965376431#2 965376453#0 965376454#0"/>
    </person>
    <person id="ped20" type="ped_pedestrian" depart="35.01">
        <walk edges="965382794 965382795#0 965382795#1 965382814#0 965382814#2 965382814#3 965939919 965939916#1 965939915#1 965939915#0 965939913#0 -461097292#2 -461097291 219035198#0 22894594#0 22894594#1 452636498#1 -22894596"/>
    </person>
    <person id="ped21" type="ped_pedestrian" depart="36.76">
        <walk edges="219035198#2 1000624456 452636498#3 452636498#5 452636498#7"/>
    </person>
    <person id="ped23" type="ped_pedestrian" depart="40.27">
        <walk edges="-452636498#2 452636498#1 452636498#0"/>
    </person>
    <person id="ped24" type="ped_pedestrian" depart="42.02">
        <walk edges="965382771 965382770#1 965382770#0 965382769 965376453#2 965376454#2 965376456 965371533#1 965371533#2 965371533#3 965371534#1 965376405#1 965376406#1"/>
    </person>
    <person id="ped25" type="ped_pedestrian" depart="43.77">
        <walk edges="965376405#1 965371534#1 965371533#3 965371533#2 965371533#1 965376456 965376454#2 965376453#0 965382790#1 965376428 965382814#0 965382814#2 965382814#3 965939919 965939916#1 965939915#1 965939915#0 965939913#0 -461097292#2 -461097291 -219035198#0 -219035198#1 -219035198#2 -1000624457#0 165087293#1"/>
    </person>
    <person id="ped26" type="ped_pedestrian" depart="45.52">
        <walk edges="258325694 -965382811#1 -219035198#1 -219035198#0 -461097291 -461097292#2 965939913#0"/>
    </person>
    <person id="ped27" type="ped_pedestrian" depart="47.27">
        <walk edges="965382779 965382769 965376453#2 965376454#2 965382767"/>
    </person>
    <person id="ped28" type="ped_pedestrian" depart="49.02">
        <walk edges="-965382834#4 965382834#3 -965382834#1 965382820 965382815#3 965382815#2 965382815#0 965382817 965382809#0 965382802#2 965382802#0"/>
    </person>
    <person id="ped29" type="ped_pedestrian" depart="50.77">
        <walk edges="-965382811#1 -219035198#1 -219035198#0 -461097291 -461097292#2 965939913#0 965939915#0 965939915#1 965939918#2 965939922#2 965382816#0 965382816#2 965382816#3 965376423 965376421#1 965376421#0 965376420 965376443 965376444#1 965376446#0 965376446#1 965376413#0 965376409#1 965376409#0 965376410"/>
    </person>
    <person id="ped31" type="ped_pedestrian" depart="54.27">
        <walk edges="965376444#1 965382852#1 965376441 965376435#1 965376435#0 965376432 965376431#0 965376431#2 965382788"/>
    </person>
    <person id="ped32" type="ped_pedestrian" depart="56.02">
        <walk edges="965382823#1 965382821#1 965382820 965939922#2 965939918#2 965939915#1 965939915#0 965939913#0 -461097292#2 -461097291 -219035198#0 -219035198#1 965382811#1"/>
    </person>
    <person id="ped33" type="ped_pedestrian" depart="57.77">
        <walk edges="219035198#2 219035198#1 -22894594#0"/>
    </person>
    <person id="ped34" type="ped_pedestrian" depart="59.52">
        <walk edges="550174908#0 965371533#3 965371533#2 965371533#1 965376456 965376454#2 965376453#0 965382790#1 965376428 965382814#0 965382814#2 965382814#3 965939919 965939916#1 965939915#1 965939915#0 965939913#0 -461097292#2 -461097291 219035198#0 258325695#1 258325697"/>
    </person>
    <person id="ped35" type="ped_pedestrian" depart="61.27">
        <walk edges="1073889957 1073889956#1 -965382834#1 965382820 965939922#2 965939918#2 965939915#1 965939915#0 965939913#0 965939913#2"/>
    </person>
    <person id="ped37" type="ped_pedestrian" depart="64.78">
        <walk edges="965382784#1 965382784#0 965376453#2 965376454#2 965376456 965371533#1 965371533#2 965371533#3 965371534#1 965376405#1 965376406#1 965376409#0 965376409#1 965376413#0 965376413#1 965376414#0"/>
    </person>
    <person id="ped38" type="ped_pedestrian" depart="66.53">
        <walk edges="965939911#0 965939911#2 965939922#0 965939917#2 965939918#2 965939922#2 965382816#0 965382816#2 965382816#3 965376425#0"/>
    </person>
    <person id="ped40" type="ped_pedestrian" depart="70.03">
        <walk edges="965376446#0 965376444#1 965376443 965376420 965376421#0 965376421#1 965376423 965382816#3 965382816#2 965382816#0 965939922#2 965939918#2 965939915#1 965939915#0 965939913#0 -461097292#2 -461097291 219035198#0 258325695#1"/>
    </person>
    <person id="ped41" type="ped_pedestrian" depart="71.78">
        <walk edges="965376454#0 965376453#0 965382790#1 965376428 965382814#0 965382814#2 965382814#3 965939919 965939916#1 965939915#1 965939915#0 965939913#0 965939913#2 965939910#3 965939910#2 965939910#0"/>
    </person>
    <person id="ped42" type="ped_pedestrian" depart="73.53">
        <walk edges="965376413#0 965376446#1 965376446#0 965376444#1 965376443 965376420 965376421#0 965376421#1 965376423 965382816#3 965382816#2 965382816#0 965939922#2 965939918#2 965939915#1 965939915#0 965939913#0 -461097292#2 -461097291 219035198#0 22894594#0"/>
    </person>
    <person id="ped43" type="ped_pedestrian" depart="75.28">
        <walk edges="965939922#2 965382816#0 965382816#2 965382816#3 965376423 965376438#1 965376436#1"/>
    </person>
    <person id="ped44" type="ped_pedestrian" depart="77.03">
        <walk edges="-436693572#2 965939911#0 965939910#0 965939910#2 965939910#3 965939913#2 461097292#1 461097291 219035198#0 22894594#0 22894594#1 452636498#1 -22894596"/>
    </person>
    <person id="ped45" type="ped_pedestrian" depart="78.78">
        <walk edges="-461097291 -461097292#2 965939913#0 965939915#0 965939915#1 965939916#1 965939919 965382814#3 965382814#2 965382814#0 965376428 965382790#1 965376453#0 965376453#2 965382769 965382770#0 965382770#1 965382771"/>
    </person>
    <person id="ped46" type="ped_pedestrian" depart="80.53">
        <walk edges="965382814#2 965382814#0 965376427#2 965376427#1 965376425#2 965376425#0 965376423 965376421#1 965376421#0 965376420 965376419#1 965376419#0"/>
    </person>
    <person id="ped47" type="ped_pedestrian" depart="82.28">
        <walk edges="-22894721#1 1000624457#1 1000624457#0 219035198#2 219035198#1 219035198#0 -461097291 -461097292#2 965939913#0 965939915#0 965939915#1 965939918#2 965939922#2 965382816#0 965382816#2 965382816#3 965376423 965376421#1 965376421#0 965376420 965376443 965376444#1 965376446#0 965376446#1 965376413#0 965376411"/>
    </person>
    <person id="ped48" type="ped_pedestrian" depart="84.03">
        <walk edges="965939922#2 965382816#0 965382816#2 965382816#3 965376423 965376438#1 965376436#1 965376436#0 965376435#0 965376435#1 965376441"/>
    </person>
    <person id="ped49" type="ped_pedestrian" depart="85.78">
        <walk edges="965939917#2 965939918#2 965939922#2 965382816#0 965382816#2 965382816#3 965376423 965376421#1 965376421#0 965376420 965376443 965382850#0"/>
    </person>
    <person id="ped50" type="ped_pedestrian" depart="87.53">
        <walk edges="-1000624457#1 -1000624457#0 -219035198#2 -219035198#1 -219035198#0 -461097291 -461097292#2 965939913#0 965939915#0 965939915#1 965939916#1 965939919 965382814#3 965382814#2 965382814#0 965376428 965382790#1 965382788 965382786#1 965382785#0 965382799"/>
    </person>
    <person id="ped51" type="ped_pedestrian" depart="89.28">
        <walk edges="965382787#0 965382788 965376431#2 965376431#0 965376432 965376435#0 965376435#1 965376441 965382852#1 965376442#0"/>
    </person>
    <person id="ped52" type="ped_pedestrian" depart="91.04">
        <walk edges="258325694 -965382811#1 -219035198#1 -219035198#0 -461097291 -461097292#2 965939913#0 965939915#0 965939915#1 965939916#1 965939919 965382814#3 965382814#2 965382814#0 965376428 965382790#1 965376453#0 965376453#2 965382769 965382779"/>
    </person>
    <person id="ped53" type="ped_pedestrian" depart="92.79">
        <walk edges="-461097292#0 965939913#0 965939915#0 965939915#1 965939918#2 965939922#2 965382816#0 965382816#2 965382816#3 965376423 965376421#1 965376421#0"/>
    </person>
    <person id="ped54" type="ped_pedestrian" depart="94.54">
        <walk edges="965376422 965376421#0 965376421#1 965376423 965382816#3 965382816#2 965382816#0 965939922#2 965939918#2 965939915#1"/>
    </person>
    <person id="ped55" type="ped_pedestrian" depart="96.29">
        <walk edges="965382854 965382855 965376436#1 965376438#1 965376423 965382816#3 965382816#2 965382816#0 965939922#2 965939918#2 965939915#1 965939915#0 965939913#0 -461097292#2 -461097291 219035198#0 258325695#1 258325696"/>
    </person>
    <person id="ped56" type="ped_pedestrian" depart="98.04">
        <walk edges="965376432 965376431#0 965376431#2 965382790#1 965376428 965382814#0 965382814#2 965382814#3 965939919 965939916#1 965939915#1 965939915#0 965939913#0 -461097292#2 -461097291 219035198#0 219035198#1 219035198#2 1000624457#0"/>
    </person>
    <person id="ped57" type="ped_pedestrian" depart="99.79">
        <walk edges="965939911#0 965939911#2 965939922#0 965939917#2 965939918#2 965939922#2 965382816#0 965382816#2 965382816#3 965376423 965376438#1 965376436#1 965376436#0 965376435#0 965376435#1 965376441 965382853#1"/>
    </person>
    <person id="ped59" type="ped_pedestrian" depart="103.29">
        <walk edges="965376722#0 965371534#1 965371533#3 965371533#2 965371533#1 965376456 965376454#2 965376453#0 965382790#1 965376428 965382814#0 965382814#2 965382814#3 965939919 965939916#1 965939915#1 965939915#0 965939913#0 -461097292#2 -461097291 -219035198#0 -219035198#1 -965382811#1"/>
    </person>
    <person id="ped60" type="ped_pedestrian" depart="105.04">
        <walk edges="965382806#2 965382806#0 965382794 965382795#0 965382795#1 965376427#2 965376427#1 965376425#2 965376425#0 965376423 965376421#1 965376421#0 965376420 965376443 965376444#1 965376442#0 965376442#1"/>
    </person>
    <person id="ped61" type="ped_pedestrian" depart="106.79">
        <walk edges="965382809#2 965382802#2 965382802#0 965382803#0 965382803#2 965382794 965382795#0 965382795#1 965376427#2 965376427#1 965376425#2 965376425#0 965376423 965376438#1 965376436#1 965376436#0 965376435#0 965376435#1 965376441"/>
    </person>
    <person id="ped62" type="ped_pedestrian" depart="108.54">
        <walk edges="-1000624456 258325695#0 258325695#1 219035198#0 -461097291 -461097292#2 965939913#0 965939915#0 965939915#1 965939916#1 965939919 965382814#3 965382814#2 965382814#0 965376428 965382790#1 965376453#0 965376454#2 965376456 965371533#1 965371533#2"/>
    </person>
    <person id="ped63" type="ped_pedestrian" depart="110.29">
        <walk edges="-165087293#2 -1000624457#0 -219035198#2 -219035198#1 -219035198#0 -461097291 -461097292#2 965939913#0 965939912#3 965939912#2"/>
    </person>
    <person id="ped64" type="ped_pedestrian" depart="112.04">
        <walk edges="965382855 965376436#1 965376438#1 965376423 965382816#3 965382816#2 965382816#0 965382820 965382821#1"/>
    </person>
    <person id="ped65" type="ped_pedestrian" depart="113.79">
        <walk edges="461097291 219035198#0 219035198#1 219035198#2 -22894597#1"/>
    </person>
    <person id="ped66" type="ped_pedestrian" depart="115.55">
        <walk edges="965382855 965376436#1 965376438#1 965376423 965382816#3 965382816#2 965382816#0 965939922#2 965939918#2 965939915#1 965939915#0 965939913#0 965939913#2 965939914"/>
    </person>
    <person id="ped67" type="ped_pedestrian" depart="117.30">
        <walk edges="-436693572#1 965939911#2 965939912#0 965939912#2 965939912#3 965939915#0 965939915#1 965939916#1 965939919 965382814#3 965382814#2 965382814#0 965376428 965382790#1 965376431#2"/>
    </person>
    <person id="ped68" type="ped_pedestrian" depart="119.05">
        <walk edges="-22894723#0 -22894723#1 461097292#1 965939913#0 965939915#0 965939915#1 965939916#1 965939919 965382817 965382808#1"/>
    </person>
    <person id="ped69" type="ped_pedestrian" depart="120.80">
        <walk edges="965382808#1 965382806#2 965382806#0 965382794 965382795#0 965382795#1 965376428 965382790#1 965376453#0 965376454#2 965376456 965371537 965371535#1 -965371546"/>
    </person>
    <person id="ped70" type="ped_pedestrian" depart="122.55">
        <walk edges="965376425#2 965376425#0 965376423 965376421#1 965376421#0 965376420 965376443 965376444#1"/>
    </person>
    <person id="ped71" type="ped_pedestrian" depart="124.30">
        <walk edges="258325694 -965382811#1 -219035198#1 -219035198#0 -461097291 -461097292#2 965939913#0 965939915#0 965939915#1 965939918#2 965939922#2 965382816#0 965382816#2 965382816#3 965376423 965376438#1 965376436#1 965376436#0 965376435#0 965376435#1 965376441 965382853#1"/>
    </person>
    <person id="ped72" type="ped_pedestrian" depart="126.05">
        <walk edges="965376416#1 965376419#0 965376419#1 965376420 965376421#0 965376421#1 965376423 965382816#3 965382816#2 965382816#0 965939922#2 965939918#2 965939915#1 965939915#0 965939913#0 -461097292#2 -461097291 219035198#0"/>
    </person>
    <person id="ped73" type="ped_pedestrian" depart="127.80">
        <walk edges="965376441 965376435#1 965376435#0 965376436#0 965376436#1 965376438#1 965376423 965376425#0 965376425#2 965376427#1 965376427#2 965382795#1 965382795#0 965382794 965382803#2 965382803#0 965382802#0"/>
    </person>
    <person id="ped74" type="ped_pedestrian" depart="129.55">
        <walk edges="1073889956#0 965382823#1 965382821#1 965382820 965382816#0 965382816#2 965382816#3 965376423 965376421#1 965376421#0 965376420 965376443 965376444#1 965376446#0 965376446#1 965376413#0 965376409#1 965376409#0 965376406#1 -550174908#3 550174909"/>
    </person>
    <person id="ped75" type="ped_pedestrian" depart="131.30">
        <walk edges="965939922#1 965939917#2 965939918#0 965939919 965382814#3 965382814#2 965382814#0 965376428 965382790#1 965376453#0 965376453#2 965382784#0"/>
    </person>
    <person id="ped76" type="ped_pedestrian" depart="133.05">
        <walk edges="965376419#1 965376420 965376421#0 965376421#1 965376438#1"/>
    </person>
    <person id="ped77" type="ped_pedestrian" depart="134.80">
        <walk edges="-550174908#2 -550174908#1 965371533#3 965371533#2 965371533#1 965376456 965376454#2 965376453#0 965382790#1 965376428 965382814#0 965382814#2 965382814#3 965939919 965939916#1 965939915#1 965939915#0 965939913#0 -461097292#2 -461097291 219035198#0 22894594#0 22894594#1 22894594#2"/>
    </person>
    <person id="ped78" type="ped_pedestrian" depart="136.55">
        <walk edges="965371533#2 965371533#1 965376456 965376455#0"/>
    </person>
    <person id="ped79" type="ped_pedestrian" depart="138.30">
        <walk edges="22894594#0"/>
    </person>
    <person id="ped80" type="ped_pedestrian" depart="140.05">
        <walk edges="-22894723#0 -22894723#1 461097292#1 965939913#0 965939915#0 965939915#1 965939916#1 965939919 965382814#3 965382814#2 965382814#0 965376428 965382790#1 965376453#0 965376453#2 965382769 965382770#0 965382770#1 965382771"/>
    </person>
    <person id="ped81" type="ped_pedestrian" depart="141.81">
        <walk edges="219035198#2 219035198#1 219035198#0 461097291 461097292#1 965939913#2 965939910#3 965939910#2"/>
    </person>
    <person id="ped82" type="ped_pedestrian" depart="143.56">
        <walk edges="965382836#1 965382821#1 965382820 965939922#2 965939918#2 965939915#1 965939915#0 965939913#0 461097292#1 -22894723#1 -22894723#0"/>
    </person>
    <person id="ped83" type="ped_pedestrian" depart="145.31">
        <walk edges="22894596 -452636498#1 22894594#1 22894594#0 219035198#0 -461097291 -461097292#2 965939913#0 965939915#0 965939915#1 965939916#1 965939919 965382814#3 965382814#2 965382814#0 965376428 965382790#1 965382788 965382786#1 965382786#0"/>
    </person>
    <person id="ped84" type="ped_pedestrian" depart="147.06">
        <walk edges="1176284084#1 965371535#1 965371535#0 965371533#2 965371533#3 965371534#1 965376405#1 965376406#1 965376409#0 965376409#1 965376413#0 965376446#1 965376446#0 965376442#0 965376442#1 965376415 -965376417#1"/>
    </person>
    <person id="ped85" type="ped_pedestrian" depart="148.81">
        <walk edges="965939913#0 965939915#0 965939915#1 965939916#1 965939919 965382814#3 965382814#2 965382814#0 965376428 965382790#1 965376453#0 965376453#2"/>
    </person>
    <person id="ped86" type="ped_pedestrian" depart="150.56">
        <walk edges="965376425#2 965376427#1 965376427#2 965382814#0 965382814#2"/>
    </person>
    <person id="ped87" type="ped_pedestrian" depart="152.31">
        <walk edges="965382815#2 965382815#3 965382820 -965382834#1 1073889956#1"/>
    </person>
    <person id="ped88" type="ped_pedestrian" depart="154.06">
        <walk edges="-452636498#11 -452636498#6 -452636498#4 258325695#0 258325695#1 219035198#0 -461097291 -461097292#2 965939913#0 965939915#0 965939915#1 965939918#2 965939922#2 965382816#0 965382816#2 965382816#3 965376423 965376421#1 965376421#0 965376420"/>
    </person>
    <person id="ped89" type="ped_pedestrian" depart="155.81">
        <walk edges="965376416#1 965376419#0 965376419#1 965376420 965376421#0 965376421#1 965376423 965376425#0 965376425#2"/>
    </person>
    <person id="ped90" type="ped_pedestrian" depart="157.56">
        <walk edges="965382799 965382785#0 965382786#1"/>
    </person>
    <person id="ped91" type="ped_pedestrian" depart="159.31">
        <walk edges="965939919 965939916#1 965939915#1 965939915#0 965939913#0 -461097292#2 -461097291 219035198#0 258325695#1 258325695#0 -452636498#4 -452636498#6 -452636498#11"/>
    </person>
    <person id="ped92" type="ped_pedestrian" depart="161.06">
        <walk edges="965376413#1 965376413#0 965376409#1 965376409#0 965376406#1 965376405#1 965371534#1 965371533#3 965371533#2 965371535#0"/>
    </person>
    <person id="ped94" type="ped_pedestrian" depart="164.56">
        <walk edges="-965382854 965382855 965376436#1 965376438#1 965376423"/>
    </person>
    <person id="ped95" type="ped_pedestrian" depart="166.31">
        <walk edges="965376416#1 965376419#0 965376419#1 965376420 965376421#0 965376421#1 965376423 965382816#3 965382816#2 965382816#0 965939922#2 965939918#2 965939915#1 965939915#0 965939913#0 -461097292#2 22894723#1 452636498#0"/>
    </person>
    <person id="ped96" type="ped_pedestrian" depart="168.07">
        <walk edges="22894721#0 -22894721#0 452636498#5 452636498#3 258325695#0 258325695#1 219035198#0 -461097291 -461097292#2 965939913#0 965939912#3 965939912#2 965939912#0"/>
    </person>
    <person id="ped97" type="ped_pedestrian" depart="169.82">
        <walk edges="965376420 965376443 965382850#0"/>
    </person>
    <person id="ped98" type="ped_pedestrian" depart="171.57">
        <walk edges="965376443 965376420 965376421#0 965376421#1 965376423 965382816#3 965382816#2 965382816#0 965939922#2 965939918#2 965939915#1 965939915#0 965939913#0 -461097292#2 -461097291 -219035198#0 -219035198#1 -219035198#2 22894597#1 -22894597#0"/>
    </person>
    <person id="ped99" type="ped_pedestrian" depart="173.32">
        <walk edges="965939922#2 965382820 965382821#1 965382823#1"/>
    </person>
    <person id="ped100" type="ped_pedestrian" depart="175.07">
        <walk edges="965939917#2 965939922#0 965939912#0 965939912#2"/>
    </person>
    <person id="ped101" type="ped_pedestrian" depart="176.82">
        <walk edges="965382824 965382823#1 965382821#1 965382820 965382816#0 965382816#2 965382816#3 965376423 965376421#1 965376421#0 965376420 965376443 -965382850#0"/>
    </person>
    <person id="ped102" type="ped_pedestrian" depart="178.57">
        <walk edges="965376427#2 965382814#0 965382814#2 965382814#3 965939919 965939916#1 965939915#1 965939915#0 965939913#0 -461097292#2 -461097291 219035198#0 219035198#1"/>
    </person>
    <person id="ped103" type="ped_pedestrian" depart="180.32">
        <walk edges="965376413#0 965376446#1 965376446#0 965376444#1 965376443 965376420 965376421#0 965376421#1 965376423 965382816#3 965382816#2 965382816#0 965939922#2 965939918#2 965939915#1 965939915#0 965939913#0 -461097292#2 -461097291 -219035198#0 -219035198#1 -219035198#2 -22894597#1"/>
    </person>
    <person id="ped104" type="ped_pedestrian" depart="182.07">
        <walk edges="965376409#0 965376409#1 965376413#0 965376446#1 965376446#0 965376444#1 965376443 965376420 965376421#0 965376421#1 965376423 965382816#3 965382816#2 965382816#0 965382815#3 965382815#2 965382815#0 965939919"/>
    </person>
    <person id="ped105" type="ped_pedestrian" depart="183.82">
        <walk edges="258325694 -965382811#1 -219035198#1 -219035198#0 -461097291 -461097292#2 965939913#0 965939915#0 965939915#1 965939916#1 965939919 965382814#3 965382814#2"/>
    </person>
    <person id="ped106" type="ped_pedestrian" depart="185.57">
        <walk edges="965376422 965376420 965376419#1 965376419#0"/>
    </person>
    <person id="ped107" type="ped_pedestrian" depart="187.32">
        <walk edges="965939915#1 965939918#2 965939922#2"/>
    </person>
    <person id="ped108" type="ped_pedestrian" depart="189.07">
        <walk edges="965376444#1 965376443 965376420 965376421#0 965376421#1 965376423 965376425#0 965376425#2 965376427#1 965376427#2 965382795#1 965382795#0 965382794 965382796 965382797#1"/>
    </person>
    <person id="ped109" type="ped_pedestrian" depart="190.82">
        <walk edges="-965382793#1 965382796 965382794 965382795#0 965382795#1 965382814#0 965382814#2 965382814#3 965939919 965939916#1 965939915#1 965939915#0 965939913#0 461097292#0"/>
    </person>
    <person id="ped110" type="ped_pedestrian" depart="192.58">
        <walk edges="965939917#2 965939918#0 965939919 965382814#3 965382814#2 965382814#0 965376428 965382790#1 965376453#0 965376454#0"/>
    </person>
    <person id="ped111" type="ped_pedestrian" depart="194.33">
        <walk edges="965376442#0 965376444#1 965376443 965376420 965376421#0 965376421#1 965376423 965376425#0 965376425#2 965376427#1 965376427#2 965382795#1 965382795#0 965382794 965382803#2 965382803#0 965382802#0 965382802#2 965382805#1"/>
    </person>
    <person id="ped112" type="ped_pedestrian" depart="196.08">
        <walk edges="-22894597#1 -219035198#2 -219035198#1 -219035198#0 -461097291 -461097292#2 965939913#0 965939915#0 965939915#1 965939916#1 965939919 965382814#3 965382814#2 965382814#0 965376428 965382790#1 965376453#0 965376454#2"/>
    </person>
    <person id="ped113" type="ped_pedestrian" depart="197.83">
        <walk edges="965376432 965376436#0 965376436#1 965376438#1 965376423 965382816#3 965382816#2 965382816#0 965382820 -965382834#1 965382834#3 965382835"/>
    </person>
    <person id="ped114" type="ped_pedestrian" depart="199.58">
        <walk edges="-965382811#0 -965382811#1 -219035198#1 -219035198#0 -461097291 -461097292#2 965939913#0 965939915#0 965939915#1 965939916#1"/>
    </person>
    <person id="ped116" type="ped_pedestrian" depart="203.08">
        <walk edges="965376455#0 965376454#2 965376453#0 965382788 965382787#0"/>
    </person>
    <person id="ped117" type="ped_pedestrian" depart="204.83">
        <walk edges="22894594#2 22894594#1 22894594#0 219035198#0 -461097291 -461097292#2 965939913#0 965939915#0 965939915#1 965939918#2 965939922#2 965382816#0 965382816#2 965382816#3 965376423 965376421#1 965376421#0 965376420 965376443 965376444#1 965376446#0 965376446#1 965376413#0 965376409#1 965376409#0 965376406#1 -550174908#3"/>
    </person>
    <person id="ped118" type="ped_pedestrian" depart="206.58">
        <walk edges="965382863 965376414#0 965376414#1 965376415 965376416#1 965376419#0 965376419#1 965376420 965376421#0 965376421#1 965376423 965382816#3 965382816#2 965382816#0 965939922#2 965939918#2 965939915#1 965939915#0 965939913#0 -461097292#2 22894723#1"/>
    </person>
    <person id="ped119" type="ped_pedestrian" depart="208.33">
        <walk edges="965376455#0 965376454#2 965376453#2 965382769 965382770#0"/>
    </person>
    <person id="ped120" type="ped_pedestrian" depart="210.08">