<?xml version="1.0" encoding="UTF-8"?>

<!-- generated on 2023-11-29 11:36:16.624028 by randomTrips.py v1_18_0+0000-03ecfdea036
<configuration>
    <net-file value="osm.net.xml.gz"/>
    <output-trip-file value="osm.pedestrian.trips.xml"/>
    <route-file value="osm.pedestrian.rou.xml"/>
    <pedestrians value="True"/>
    <prefix value="ped"/>
    <vehicle-class value="pedestrian"/>
    <fringe-factor value="2"/>
    <max-distance value="2000.0"/>
    <insertion-density value="80.0"/>
</configuration>
-->

<routes xmlns:xsi="http://www.w3.org/2001/XMLSchema-instance" xsi:noNamespaceSchemaLocation="http://sumo.dlr.de/xsd/routes_file.xsd">
    <vType id="ped_pedestrian" vClass="pedestrian"/>
    <person id="ped0" depart="0.00" type="ped_pedestrian">
        <walk from="965382772" to="-219035198#0"/>
    </person>
    <person id="ped1" depart="1.75" type="ped_pedestrian">
        <walk from="258325695#1" to="22894594#2"/>
    </person>
    <person id="ped2" depart="3.50" type="ped_pedestrian">
        <walk from="965382802#0" to="965382787#0"/>
    </person>
    <person id="ped3" depart="5.25" type="ped_pedestrian">
        <walk from="965939909" to="-436693572#2"/>
    </person>
    <person id="ped4" depart="7.00" type="ped_pedestrian">
        <walk from="965376416#1" to="-219035198#2"/>
    </person>
    <person id="ped5" depart="8.75" type="ped_pedestrian">
        <walk from="165087293#0" to="965376436#0"/>
    </person>
    <person id="ped6" depart="10.50" type="ped_pedestrian">
        <walk from="-219035198#1" to="1073889957"/>
    </person>
    <person id="ped7" depart="12.25" type="ped_pedestrian">
        <walk from="965382779" to="965376443"/>
    </person>
    <person id="ped8" depart="14.01" type="ped_pedestrian">
        <walk from="165087293#0" to="965376455#2"/>
    </person>
    <person id="ped9" depart="15.76" type="ped_pedestrian">
        <walk from="965382815#3" to="-1000624457#0"/>
    </person>
    <person id="ped10" depart="17.51" type="ped_pedestrian">
        <walk from="965382815#2" to="965382794"/>
    </person>
    <person id="ped11" depart="19.26" type="ped_pedestrian">
        <walk from="965371533#2" to="-965382834#1"/>
    </person>
    <person id="ped12" depart="21.01" type="ped_pedestrian">
        <walk from="965939915#1" to="965371534#1"/>
    </person>
    <person id="ped13" depart="22.76" type="ped_pedestrian">
        <walk from="-452636498#0" to="-452636498#11"/>
    </person>
    <person id="ped14" depart="24.51" type="ped_pedestrian">
        <walk from="965382824" to="965376722#1"/>
    </person>
    <person id="ped15" depart="26.26" type="ped_pedestrian">
        <walk from="965382815#2" to="965382802#0"/>
    </person>
    <person id="ped16" depart="28.01" type="ped_pedestrian">
        <walk from="965376441" to="965939918#0"/>
    </person>
    <person id="ped17" depart="29.76" type="ped_pedestrian">
        <walk from="965376409#0" to="965376446#0"/>
    </person>
    <person id="ped18" depart="31.51" type="ped_pedestrian">
        <walk from="965382817" to="965382770#0"/>
    </person>
    <person id="ped19" depart="33.26" type="ped_pedestrian">
        <walk from="965382850#0" to="965376454#0"/>
    </person>
    <person id="ped20" depart="35.01" type="ped_pedestrian">
        <walk from="965382794" to="-22894596"/>
    </person>
    <person id="ped21" depart="36.76" type="ped_pedestrian">
        <walk from="219035198#2" to="452636498#7"/>
    </person>
    <person id="ped22" depart="38.52" type="ped_pedestrian">
        <walk from="-22894731" to="22894597#1"/>
    </person>
    <person id="ped23" depart="40.27" type="ped_pedestrian">
        <walk from="-452636498#2" to="452636498#0"/>
    </person>
    <person id="ped24" depart="42.02" type="ped_pedestrian">
        <walk from="965382771" to="965376406#1"/>
    </person>
    <person id="ped25" depart="43.77" type="ped_pedestrian">
        <walk from="965376405#1" to="165087293#1"/>
    </person>
    <person id="ped26" depart="45.52" type="ped_pedestrian">
        <walk from="258325694" to="965939913#0"/>
    </person>
    <person id="ped27" depart="47.27" type="ped_pedestrian">
        <walk from="965382779" to="965382767"/>
    </person>
    <person id="ped28" depart="49.02" type="ped_pedestrian">
        <walk from="-965382834#4" to="965382802#0"/>
    </person>
    <person id="ped29" depart="50.77" type="ped_pedestrian">
        <walk from="-965382811#1" to="965376410"/>
    </person>
    <person id="ped30" depart="52.52" type="ped_pedestrian">
        <walk from="965939922#0" to="965382774"/>
    </person>
    <person id="ped31" depart="54.27" type="ped_pedestrian">
        <walk from="965376444#1" to="965382788"/>
    </person>
    <person id="ped32" depart="56.02" type="ped_pedestrian">
        <walk from="965382823#1" to="965382811#1"/>
    </person>
    <person id="ped33" depart="57.77" type="ped_pedestrian">
        <walk from="219035198#2" to="-22894594#0"/>
    </person>
    <person id="ped34" depart="59.52" type="ped_pedestrian">
        <walk from="550174908#0" to="258325697"/>
    </person>
    <person id="ped35" depart="61.27" type="ped_pedestrian">
        <walk from="1073889957" to="965939913#2"/>
    </person>
    <person id="ped36" depart="63.02" type="ped_pedestrian">
        <walk from="965382854" to="921869812"/>
    </person>
    <person id="ped37" depart="64.78" type="ped_pedestrian">
        <walk from="965382784#1" to="965376414#0"/>
    </person>
    <person id="ped38" depart="66.53" type="ped_pedestrian">
        <walk from="965939911#0" to="965376425#0"/>
    </person>
    <person id="ped39" depart="68.28" type="ped_pedestrian">
        <walk from="258325694" to="22894731"/>
    </person>
    <person id="ped40" depart="70.03" type="ped_pedestrian">
        <walk from="965376446#0" to="258325695#1"/>
    </person>
    <person id="ped41" depart="71.78" type="ped_pedestrian">
        <walk from="965376454#0" to="965939910#0"/>
    </person>
    <person id="ped42" depart="73.53" type="ped_pedestrian">
        <walk from="965376413#0" to="22894594#0"/>
    </person>
    <person id="ped43" depart="75.28" type="ped_pedestrian">
        <walk from="965939922#2" to="965376436#1"/>
    </person>
    <person id="ped44" depart="77.03" type="ped_pedestrian">
        <walk from="-436693572#2" to="-22894596"/>
    </person>
    <person id="ped45" depart="78.78" type="ped_pedestrian">
        <walk from="-461097291" to="965382771"/>
    </person>
    <person id="ped46" depart="80.53" type="ped_pedestrian">
        <walk from="965382814#2" to="965376419#0"/>
    </person>
    <person id="ped47" depart="82.28" type="ped_pedestrian">
        <walk from="-22894721#1" to="965376411"/>
    </person>
    <person id="ped48" depart="84.03" type="ped_pedestrian">
        <walk from="965939922#2" to="965376441"/>
    </person>
    <person id="ped49" depart="85.78" type="ped_pedestrian">
        <walk from="965939917#2" to="965382850#0"/>
    </person>
    <person id="ped50" depart="87.53" type="ped_pedestrian">
        <walk from="-1000624457#1" to="965382799"/>
    </person>
    <person id="ped51" depart="89.28" type="ped_pedestrian">
        <walk from="965382787#0" to="965376442#0"/>
    </person>
    <person id="ped52" depart="91.04" type="ped_pedestrian">
        <walk from="258325694" to="965382779"/>
    </person>
    <person id="ped53" depart="92.79" type="ped_pedestrian">
        <walk from="-461097292#0" to="965376421#0"/>
    </person>
    <person id="ped54" depart="94.54" type="ped_pedestrian">
        <walk from="965376422" to="965939915#1"/>
    </person>
    <person id="ped55" depart="96.29" type="ped_pedestrian">
        <walk from="965382854" to="258325696"/>
    </person>
    <person id="ped56" depart="98.04" type="ped_pedestrian">
        <walk from="965376432" to="1000624457#0"/>
    </person>
    <person id="ped57" depart="99.79" type="ped_pedestrian">
        <walk from="965939911#0" to="965382853#1"/>
    </person>
    <person id="ped58" depart="101.54" type="ped_pedestrian">
        <walk from="452636498#2" to="965382774"/>
    </person>
    <person id="ped59" depart="103.29" type="ped_pedestrian">
        <walk from="965376722#0" to="-965382811#1"/>
    </person>
    <person id="ped60" depart="105.04" type="ped_pedestrian">
        <walk from="965382806#2" to="965376442#1"/>
    </person>
    <person id="ped61" depart="106.79" type="ped_pedestrian">
        <walk from="965382809#2" to="965376441"/>
    </person>
    <person id="ped62" depart="108.54" type="ped_pedestrian">
        <walk from="-1000624456" to="965371533#2"/>
    </person>
    <person id="ped63" depart="110.29" type="ped_pedestrian">
        <walk from="-165087293#2" to="965939912#2"/>
    </person>
    <person id="ped64" depart="112.04" type="ped_pedestrian">
        <walk from="965382855" to="965382821#1"/>
    </person>
    <person id="ped65" depart="113.79" type="ped_pedestrian">
        <walk from="461097291" to="-22894597#1"/>
    </person>
    <person id="ped66" depart="115.55" type="ped_pedestrian">
        <walk from="965382855" to="965939914"/>
    </person>
    <person id="ped67" depart="117.30" type="ped_pedestrian">
        <walk from="-436693572#1" to="965376431#2"/>
    </person>
    <person id="ped68" depart="119.05" type="ped_pedestrian">
        <walk from="-22894723#0" to="965382808#1"/>
    </person>
    <person id="ped69" depart="120.80" type="ped_pedestrian">
        <walk from="965382808#1" to="-965371546"/>
    </person>
    <person id="ped70" depart="122.55" type="ped_pedestrian">
        <walk from="965376425#2" to="965376444#1"/>
    </person>
    <person id="ped71" depart="124.30" type="ped_pedestrian">
        <walk from="258325694" to="965382853#1"/>
    </person>
    <person id="ped72" depart="126.05" type="ped_pedestrian">
        <walk from="965376416#1" to="219035198#0"/>
    </person>
    <person id="ped73" depart="127.80" type="ped_pedestrian">
        <walk from="965376441" to="965382802#0"/>
    </person>
    <person id="ped74" depart="129.55" type="ped_pedestrian">
        <walk from="1073889956#0" to="550174909"/>
    </person>
    <person id="ped75" depart="131.30" type="ped_pedestrian">
        <walk from="965939922#1" to="965382784#0"/>
    </person>
    <person id="ped76" depart="133.05" type="ped_pedestrian">
        <walk from="965376419#1" to="965376438#1"/>
    </person>
    <person id="ped77" depart="134.80" type="ped_pedestrian">
        <walk from="-550174908#2" to="22894594#2"/>
    </person>
    <person id="ped78" depart="136.55" type="ped_pedestrian">
        <walk from="965371533#2" to="965376455#0"/>
    </person>
    <person id="ped79" depart="138.30" type="ped_pedestrian">
        <walk from="22894594#0" to="22894594#0"/>
    </person>
    <person id="ped80" depart="140.05" type="ped_pedestrian">
        <walk from="-22894723#0" to="965382771"/>
    </person>
    <person id="ped81" depart="141.81" type="ped_pedestrian">
        <walk from="219035198#2" to="965939910#2"/>
    </person>
    <person id="ped82" depart="143.56" type="ped_pedestrian">
        <walk from="965382836#1" to="-22894723#0"/>
    </person>
    <person id="ped83" depart="145.31" type="ped_pedestrian">
        <walk from="22894596" to="965382786#0"/>
    </person>
    <person id="ped84" depart="147.06" type="ped_pedestrian">
        <walk from="1176284084#1" to="-965376417#1"/>
    </person>
    <person id="ped85" depart="148.81" type="ped_pedestrian">
        <walk from="965939913#0" to="965376453#2"/>
    </person>
    <person id="ped86" depart="150.56" type="ped_pedestrian">
        <walk from="965376425#2" to="965382814#2"/>
    </person>
    <person id="ped87" depart="152.31" type="ped_pedestrian">
        <walk from="965382815#2" to="1073889956#1"/>
    </person>
    <person id="ped88" depart="154.06" type="ped_pedestrian">
        <walk from="-452636498#11" to="965376420"/>
    </person>
    <person id="ped89" depart="155.81" type="ped_pedestrian">
        <walk from="965376416#1" to="965376425#2"/>
    </person>
    <person id="ped90" depart="157.56" type="ped_pedestrian">
        <walk from="965382799" to="965382786#1"/>
    </person>
    <person id="ped91" depart="159.31" type="ped_pedestrian">
        <walk from="965939919" to="-452636498#11"/>
    </person>
    <person id="ped92" depart="161.06" type="ped_pedestrian">
        <walk from="965376413#1" to="965371535#0"/>
    </person>
    <person id="ped93" depart="162.81" type="ped_pedestrian">
        <walk from="965382850#0" to="22894731"/>
    </person>
    <person id="ped94" depart="164.56" type="ped_pedestrian">
        <walk from="-965382854" to="965376423"/>
    </person>
    <person id="ped95" depart="166.31" type="ped_pedestrian">
        <walk from="965376416#1" to="452636498#0"/>
    </person>
    <person id="ped96" depart="168.07" type="ped_pedestrian">
        <walk from="22894721#0" to="965939912#0"/>
    </person>
    <person id="ped97" depart="169.82" type="ped_pedestrian">
        <walk from="965376420" to="965382850#0"/>
    </person>
    <person id="ped98" depart="171.57" type="ped_pedestrian">
        <walk from="965376443" to="-22894597#0"/>
    </person>
    <person id="ped99" depart="173.32" type="ped_pedestrian">
        <walk from="965939922#2" to="965382823#1"/>
    </person>
    <person id="ped100" depart="175.07" type="ped_pedestrian">
        <walk from="965939917#2" to="965939912#2"/>
    </person>
    <person id="ped101" depart="176.82" type="ped_pedestrian">
        <walk from="965382824" to="-965382850#0"/>
    </person>
    <person id="ped102" depart="178.57" type="ped_pedestrian">
        <walk from="965376427#2" to="219035198#1"/>
    </person>
    <person id="ped103" depart="180.32" type="ped_pedestrian">
        <walk from="965376413#0" to="-22894597#1"/>
    </person>
    <person id="ped104" depart="182.07" type="ped_pedestrian">
        <walk from="965376409#0" to="965939919"/>
    </person>
    <person id="ped105" depart="183.82" type="ped_pedestrian">
        <walk from="258325694" to="965382814#2"/>
    </person>
    <person id="ped106" depart="185.57" type="ped_pedestrian">
        <walk from="965376422" to="965376419#0"/>
    </person>
    <person id="ped107" depart="187.32" type="ped_pedestrian">
        <walk from="965939915#1" to="965939922#2"/>
    </person>
    <person id="ped108" depart="189.07" type="ped_pedestrian">
        <walk from="965376444#1" to="965382797#1"/>
    </person>
    <person id="ped109" depart="190.82" type="ped_pedestrian">
        <walk from="-965382793#1" to="461097292#0"/>
    </person>
    <person id="ped110" depart="192.58" type="ped_pedestrian">
        <walk from="965939917#2" to="965376454#0"/>
    </person>
    <person id="ped111" depart="194.33" type="ped_pedestrian">
        <walk from="965376442#0" to="965382805#1"/>
    </person>
    <person id="ped112" depart="196.08" type="ped_pedestrian">
        <walk from="-22894597#1" to="965376454#2"/>
    </person>
    <person id="ped113" depart="197.83" type="ped_pedestrian">
        <walk from="965376432" to="965382835"/>
    </person>
    <person id="ped114" depart="199.58" type="ped_pedestrian">
        <walk from="-965382811#0" to="965939916#1"/>
    </person>
    <person id="ped115" depart="201.33" type="ped_pedestrian">
        <walk from="-22894731" to="1073889956#0"/>
    </person>
    <person id="ped116" depart="203.08" type="ped_pedestrian">
        <walk from="965376455#0" to="965382787#0"/>
    </person>
    <person id="ped117" depart="204.83" type="ped_pedestrian">
        <walk from="22894594#2" to="-550174908#3"/>
    </person>
    <person id="ped118" depart="206.58" type="ped_pedestrian">
        <walk from="965382863" to="22894723#1"/>
    </person>
    <person id="ped119" depart="208.33" type="ped_pedestrian">
        <walk from="965376455#0" to="965382770#0"/>
    </person>
    <person id="ped120" depart="210.08" type="ped_pedestrian">
        <walk from="965376415" to="965376454#2"/>
    </person>
    <person id="ped121" depart="211.83" type="ped_pedestrian">
        <walk from="965376436#1" to="965939913#0"/>
    </person>
    <person id="ped122" depart="213.58" type="ped_pedestrian">
        <walk from="1073889956#1" to="965382797#1"/>
    </person>
    <person id="ped123" depart="215.33" type="ped_pedestrian">
        <walk from="22894596" to="965376414#0"/>
    </person>
    <person id="ped124" depart="217.08" type="ped_pedestrian">
        <walk from="965382786#0" to="461097292#1"/>
    </person>
    <person id="ped125" depart="218.84" type="ped_pedestrian">
        <walk from="550174908#0" to="965382806#0"/>
    </person>
    <person id="ped126" depart="220.59" type="ped_pedestrian">
        <walk from="-22894723#0" to="965376425#0"/>
    </person>
    <person id="ped127" depart="222.34" type="ped_pedestrian">
        <walk from="965939922#2" to="965939922#2"/>
    </person>
    <person id="ped128" depart="224.09" type="ped_pedestrian">
        <walk from="-22894723#1" to="219035198#0"/>
    </person>
    <person id="ped129" depart="225.84" type="ped_pedestrian">
        <walk from="258325694" to="965939912#3"/>
    </person>
    <person id="ped130" depart="227.59" type="ped_pedestrian">
        <walk from="965382855" to="965382855"/>
    </person>
    <person id="ped131" depart="229.34" type="ped_pedestrian">
        <walk from="965376405#1" to="-965382834#3"/>
    </person>
    <person id="ped132" depart="231.09" type="ped_pedestrian">
        <walk from="965382820" to="965382795#0"/>
    </person>
    <person id="ped133" depart="232.84" type="ped_pedestrian">
        <walk from="965376722#1" to="965939922#0"/>
    </person>
    <person id="ped134" depart="234.59" type="ped_pedestrian">
        <walk from="965382784#0" to="-1000624457#0"/>
    </person>
    <person id="ped135" depart="236.34" type="ped_pedestrian">
        <walk from="965382816#2" to="461097292#1"/>
    </person>
    <person id="ped136" depart="238.09" type="ped_pedestrian">
        <walk from="965382785#0" to="965939913#0"/>
    </person>
    <person id="ped137" depart="239.84" type="ped_pedestrian">
        <walk from="-965376417#0" to="-550174908#1"/>
    </person>
    <person id="ped138" depart="241.59" type="ped_pedestrian">
        <walk from="-452636498#6" to="965376446#0"/>
    </person>
    <person id="ped139" depart="243.34" type="ped_pedestrian">
        <walk from="258325695#1" to="965376722#1"/>
    </person>
    <person id="ped140" depart="245.10" type="ped_pedestrian">
        <walk from="965382795#1" to="1176284084#1"/>
    </person>
    <person id="ped141" depart="246.85" type="ped_pedestrian">
        <walk from="965382771" to="258325696"/>
    </person>
    <person id="ped142" depart="248.60" type="ped_pedestrian">
        <walk from="965376428" to="965939910#2"/>
    </person>
    <person id="ped143" depart="250.35" type="ped_pedestrian">
        <walk from="965382824" to="-452636498#0"/>
    </person>
    <person id="ped144" depart="252.10" type="ped_pedestrian">
        <walk from="965376416#1" to="436693572#2"/>
    </person>
    <person id="ped145" depart="253.85" type="ped_pedestrian">
        <walk from="-1000624456" to="965382809#2"/>
    </person>
    <person id="ped146" depart="255.60" type="ped_pedestrian">
        <walk from="965382771" to="258325695#1"/>
    </person>
    <person id="ped147" depart="257.35" type="ped_pedestrian">
        <walk from="965382802#2" to="965376446#0"/>
    </person>
    <person id="ped148" depart="259.10" type="ped_pedestrian">
        <walk from="965376417#1" to="-1000624457#1"/>
    </person>
    <person id="ped149" depart="260.85" type="ped_pedestrian">
        <walk from="-22894723#1" to="965382862"/>
    </person>
    <person id="ped150" depart="262.60" type="ped_pedestrian">
        <walk from="965939910#2" to="965376443"/>
    </person>
    <person id="ped151" depart="264.35" type="ped_pedestrian">
        <walk from="965382820" to="965376454#2"/>
    </person>
    <person id="ped152" depart="266.10" type="ped_pedestrian">
        <walk from="-965382774" to="-965371546"/>
    </person>
    <person id="ped153" depart="267.85" type="ped_pedestrian">
        <walk from="461097291" to="965939910#0"/>
    </person>
    <person id="ped154" depart="269.61" type="ped_pedestrian">
        <walk from="965382814#3" to="965382850#0"/>
    </person>
    <person id="ped155" depart="271.36" type="ped_pedestrian">
        <walk from="965939910#0" to="165087293#1"/>
    </person>
    <person id="ped156" depart="273.11" type="ped_pedestrian">
        <walk from="22894721#0" to="-452636498#4"/>
    </person>
    <person id="ped157" depart="274.86" type="ped_pedestrian">
        <walk from="965382811#0" to="965382862"/>
    </person>
    <person id="ped158" depart="276.61" type="ped_pedestrian">
        <walk from="965376414#0" to="965382770#0"/>
    </person>
    <person id="ped159" depart="278.36" type="ped_pedestrian">
        <walk from="-965382793#1" to="965939912#3"/>
    </person>
    <person id="ped160" depart="280.11" type="ped_pedestrian">
        <walk from="965382850#0" to="965939918#0"/>
    </person>
    <person id="ped161" depart="281.86" type="ped_pedestrian">
        <walk from="965382815#3" to="965382855"/>
    </person>
    <person id="ped162" depart="283.61" type="ped_pedestrian">
        <walk from="-219035198#0" to="965382803#0"/>
    </person>
    <person id="ped163" depart="285.36" type="ped_pedestrian">
        <walk from="965371533#1" to="965939912#3"/>
    </person>
    <person id="ped164" depart="287.11" type="ped_pedestrian">
        <walk from="965382815#0" to="965382852#1"/>
    </person>
    <person id="ped165" depart="288.86" type="ped_pedestrian">
        <walk from="965382815#3" to="258325696"/>
    </person>
    <person id="ped166" depart="290.61" type="ped_pedestrian">
        <walk from="965382814#0" to="-461097292#0"/>
    </person>
    <person id="ped167" depart="292.36" type="ped_pedestrian">
        <walk from="965382852#1" to="965382836#1"/>
    </person>
    <person id="ped168" depart="294.11" type="ped_pedestrian">
        <walk from="165087293#1" to="965382816#3"/>
    </person>
    <person id="ped169" depart="295.87" type="ped_pedestrian">
        <walk from="965376423" to="550174908#2"/>
    </person>
    <person id="ped170" depart="297.62" type="ped_pedestrian">
        <walk from="965382814#3" to="22894594#2"/>
    </person>
    <person id="ped171" depart="299.37" type="ped_pedestrian">
        <walk from="-219035198#0" to="1073889956#1"/>
    </person>
    <person id="ped172" depart="301.12" type="ped_pedestrian">
        <walk from="921869812" to="965382852#1"/>
    </person>
    <person id="ped173" depart="302.87" type="ped_pedestrian">
        <walk from="965939917#0" to="452636498#0"/>
    </person>
    <person id="ped174" depart="304.62" type="ped_pedestrian">
        <walk from="965382772" to="965376414#1"/>
    </person>
    <person id="ped175" depart="306.37" type="ped_pedestrian">
        <walk from="965939918#2" to="965376442#0"/>
    </person>
    <person id="ped176" depart="308.12" type="ped_pedestrian">
        <walk from="965939913#2" to="-550174908#1"/>
    </person>
    <person id="ped177" depart="309.87" type="ped_pedestrian">
        <walk from="965939917#2" to="1000624457#0"/>
    </person>
    <person id="ped178" depart="311.62" type="ped_pedestrian">
        <walk from="965939917#0" to="258325696"/>
    </person>
    <person id="ped179" depart="313.37" type="ped_pedestrian">
        <walk from="-461097291" to="965376421#0"/>
    </person>
    <person id="ped180" depart="315.12" type="ped_pedestrian">
        <walk from="965382799" to="550174909"/>
    </person>
    <person id="ped181" depart="316.87" type="ped_pedestrian">
        <walk from="965376722#0" to="965376436#1"/>
    </person>
    <person id="ped182" depart="318.62" type="ped_pedestrian">
        <walk from="965376409#1" to="965376454#0"/>
    </person>
    <person id="ped183" depart="320.37" type="ped_pedestrian">
        <walk from="22894723#0" to="965382795#1"/>
    </person>
    <person id="ped184" depart="322.13" type="ped_pedestrian">
        <walk from="-1000624456" to="965939912#2"/>
    </person>
    <person id="ped185" depart="323.88" type="ped_pedestrian">
        <walk from="965376441" to="965382797#1"/>
    </person>
    <person id="ped186" depart="325.63" type="ped_pedestrian">
        <walk from="965382803#0" to="965382786#1"/>
    </person>
    <person id="ped187" depart="327.38" type="ped_pedestrian">
        <walk from="965371546" to="-22894723#0"/>
    </person>
    <person id="ped188" depart="329.13" type="ped_pedestrian">
        <walk from="965382785#0" to="965371533#3"/>
    </person>
    <person id="ped189" depart="330.88" type="ped_pedestrian">
        <walk from="461097292#1" to="965382834#4"/>
    </person>
    <person id="ped190" depart="332.63" type="ped_pedestrian">
        <walk from="965382796" to="461097292#1"/>
    </person>
    <person id="ped191" depart="334.38" type="ped_pedestrian">
        <walk from="461097291" to="965376415"/>
    </person>
    <person id="ped192" depart="336.13" type="ped_pedestrian">
        <walk from="965376413#1" to="461097291"/>
    </person>
    <person id="ped193" depart="337.88" type="ped_pedestrian">
        <walk from="-550174909" to="965376419#0"/>
    </person>
    <person id="ped194" depart="339.63" type="ped_pedestrian">
        <walk from="965939913#2" to="965382787#0"/>
    </person>
    <person id="ped195" depart="341.38" type="ped_pedestrian">
        <walk from="965939910#2" to="965382769"/>
    </person>
    <person id="ped196" depart="343.13" type="ped_pedestrian">
        <walk from="452636498#3" to="965376444#1"/>
    </person>
    <person id="ped197" depart="344.88" type="ped_pedestrian">
        <walk from="-1000624456" to="452636498#5"/>
    </person>
    <person id="ped198" depart="346.64" type="ped_pedestrian">
        <walk from="965376419#0" to="965376454#2"/>
    </person>
    <person id="ped199" depart="348.39" type="ped_pedestrian">
        <walk from="965382784#0" to="965376425#2"/>
    </person>
    <person id="ped200" depart="350.14" type="ped_pedestrian">
        <walk from="965376420" to="219035198#1"/>
    </person>
    <person id="ped201" depart="351.89" type="ped_pedestrian">
        <walk from="965376425#2" to="965939910#0"/>
    </person>
    <person id="ped202" depart="353.64" type="ped_pedestrian">
        <walk from="965382814#3" to="-965382850#1"/>
    </person>
    <person id="ped203" depart="355.39" type="ped_pedestrian">
        <walk from="-436693572#1" to="965376438#1"/>
    </person>
    <person id="ped204" depart="357.14" type="ped_pedestrian">
        <walk from="965382770#1" to="965371534#1"/>
    </person>
    <person id="ped205" depart="358.89" type="ped_pedestrian">
        <walk from="965382816#2" to="965382806#0"/>
    </person>
    <person id="ped206" depart="360.64" type="ped_pedestrian">
        <walk from="965382786#0" to="22894594#2"/>
    </person>
    <person id="ped207" depart="362.39" type="ped_pedestrian">
        <walk from="1000624457#1" to="-219035198#0"/>
    </person>
    <person id="ped208" depart="364.14" type="ped_pedestrian">
        <walk from="22894597#1" to="965376427#2"/>
    </person>
    <person id="ped209" depart="365.89" type="ped_pedestrian">
        <walk from="965382824" to="-22894723#1"/>
    </person>
    <person id="ped210" depart="367.64" type="ped_pedestrian">
        <walk from="965376414#1" to="965382771"/>
    </person>
    <person id="ped211" depart="369.39" type="ped_pedestrian">
        <walk from="1000624456" to="965382793#1"/>
    </person>
    <person id="ped212" depart="371.14" type="ped_pedestrian">
        <walk from="965376431#0" to="22894723#0"/>
    </person>
    <person id="ped213" depart="372.90" type="ped_pedestrian">
        <walk from="965382784#1" to="-1000624457#0"/>
    </person>
    <person id="ped214" depart="374.65" type="ped_pedestrian">
        <walk from="965382803#2" to="965382809#2"/>
    </person>
    <person id="ped215" depart="376.40" type="ped_pedestrian">
        <walk from="-452636498#6" to="965376419#1"/>
    </person>
    <person id="ped216" depart="378.15" type="ped_pedestrian">
        <walk from="-965382835" to="965939916#1"/>
    </person>
    <person id="ped217" depart="379.90" type="ped_pedestrian">
        <walk from="965376436#0" to="-22894597#0"/>
    </person>
    <person id="ped218" depart="381.65" type="ped_pedestrian">
        <walk from="22894721#0" to="965382834#4"/>
    </person>
    <person id="ped219" depart="383.40" type="ped_pedestrian">
        <walk from="965376422" to="965382815#3"/>
    </person>
    <person id="ped220" depart="385.15" type="ped_pedestrian">
        <walk from="965382785#1" to="965939922#0"/>
    </person>
    <person id="ped221" depart="386.90" type="ped_pedestrian">
        <walk from="965376455#0" to="965939915#0"/>
    </person>
    <person id="ped222" depart="388.65" type="ped_pedestrian">
        <walk from="965382863" to="965382767"/>
    </person>
    <person id="ped223" depart="390.40" type="ped_pedestrian">
        <walk from="965382796" to="965376436#0"/>
    </person>
    <person id="ped224" depart="392.15" type="ped_pedestrian">
        <walk from="965382817" to="965376444#1"/>
    </person>
    <person id="ped225" depart="393.90" type="ped_pedestrian">
        <walk from="965939910#0" to="965382803#2"/>
    </person>
    <person id="ped226" depart="395.65" type="ped_pedestrian">
        <walk from="965376425#2" to="258325695#1"/>
    </person>
    <person id="ped227" depart="397.40" type="ped_pedestrian">
        <walk from="22894721#0" to="965382774"/>
    </person>
    <person id="ped228" depart="399.16" type="ped_pedestrian">
        <walk from="965382808#1" to="965376439#1"/>
    </person>
    <person id="ped229" depart="400.91" type="ped_pedestrian">