<?xml version="1.0" encoding="UTF-8"?>

<!-- generated on 2023-11-29 11:36:12.178750 by randomTrips.py v1_18_0+0000-03ecfdea036
<configuration>
    <net-file value="osm.net.xml.gz"/>
    <output-trip-file value="osm.bus.trips.xml"/>
    <route-file value="osm.bus.rou.xml"/>
    <prefix value="bus"/>
    <trip-attributes value="departLane=&quot;best&quot;"/>
    <fringe-start-attributes value="departSpeed=&quot;max&quot;"/>
    <vehicle-class value="bus"/>
    <fringe-factor value="5"/>
    <vclass value="bus"/>
    <via-edge-types value="highway.motorway,highway.motorway_link,highway.trunk_link,highway.primary_link,highway.secondary_link,highway.tertiary_link"/>
    <min-distance value="600.0"/>
    <min-distance.fringe value="10.0"/>
    <remove-loops value="True"/>
    <validate value="True"/>
    <insertion-density value="40.0"/>
</configuration>
-->

<!-- generated on 2023-11-29 11:36:12 by Eclipse SUMO duarouter Version 1.18.0
<configuration xmlns:xsi="http://www.w3.org/2001/XMLSchema-instance" xsi:noNamespaceSchemaLocation="http://sumo.dlr.de/xsd/duarouterConfiguration.xsd">

    <input>
        <net-file value="osm.net.xml.gz"/>
        <route-files value="osm.bus.trips.xml"/>
    </input>

    <output>
        <output-file value="osm.bus.trips.xml.tmp"/>
        <alternatives-output value="NUL"/>
        <write-trips value="true"/>
    </output>

    <processing>
        <remove-loops value="true"/>
    </processing>

    <time>
        <begin value="0.0"/>
        <end value="3600.0"/>
    </time>

    <report>
        <no-warnings value="true"/>
        <ignore-errors value="true"/>
        <no-step-log value="true"/>
    </report>

</configuration>
-->

<routes xmlns:xsi="http://www.w3.org/2001/XMLSchema-instance" xsi:noNamespaceSchemaLocation="http://sumo.dlr.de/xsd/routes_file.xsd">
    <vType id="bus_bus" vClass="bus"/>
    <trip id="bus0" type="bus_bus" depart="0.00" departLane="best" from="-452636498#2" to="22894744#0"/>
    <trip id="bus1" type="bus_bus" depart="3.17" departLane="best" departSpeed="max" from="22894596" to="165087293#1"/>
    <trip id="bus2" type="bus_bus" depart="6.34" departLane="best" from="1176284081#0" to="38323569#1"/>
    <trip id="bus3" type="bus_bus" depart="9.51" departLane="best" from="965359267" to="452636498#5"/>
    <trip id="bus5" type="bus_bus" depart="15.85" departLane="best" departSpeed="max" from="-452636498#11" to="-965939908#2"/>
    <trip id="bus6" type="bus_bus" depart="19.02" departLane="best" departSpeed="max" from="-452636498#11" to="165087293#1"/>
    <trip id="bus7" type="bus_bus" depart="22.19" departLane="best" departSpeed="max" from="-452636498#11" to="219035198#0"/>
    <trip id="bus8" type="bus_bus" depart="25.36" departLane="best" departSpeed="max" from="-484667608" to="452636498#7"/>
    <trip id="bus11" type="bus_bus" depart="34.87" departLane="best" departSpeed="max" from="965939908#0" to="38323569#1"/>
    <trip id="bus12" type="bus_bus" depart="38.04" departLane="best" departSpeed="max" from="-452636498#11" to="-452636498#2"/>
    <trip id="bus13" type="bus_bus" depart="41.21" departLane="best" from="-452636498#4" to="452245665#2"/>
    <trip id="bus15" type="bus_bus" depart="47.55" departLane="best" from="-452636498#4" to="22894740#2"/>
    <trip id="bus16" type="bus_bus" depart="50.72" departLane="best" departSpeed="max" from="436682108" to="1028542371#2"/>
    <trip id="bus17" type="bus_bus" depart="53.89" departLane="best" from="22894597#0" to="452245665#3"/>
    <trip id="bus18" type="bus_bus" depart="57.06" departLane="best" departSpeed="max" from="965359259" to="436693564#0"/>
    <trip id="bus21" type="bus_bus" depart="66.57" departLane="best" departSpeed="max" from="-452636498#11" to="293998818#2"/>
    <trip id="bus22" type="bus_bus" depart="69.74" departLane="best" departSpeed="max" from="965359259" to="1000624457#0"/>
    <trip id="bus23" type="bus_bus" depart="72.91" departLane="best" from="1000624456" to="22894594#2"/>
    <trip id="bus24" type="bus_bus" depart="76.08" departLane="best" from="22894743#2" to="38323569#1"/>
    <trip id="bus25" type="bus_bus" depart="79.25" departLane="best" from="-452636498#1" to="452245665#3"/>
    <trip id="bus26" type="bus_bus" depart="82.42" departLane="best" departSpeed="max" from="-452636498#11" to="22894740#2"/>
    <trip id="bus28" type="bus_bus" depart="88.76" departLane="best" from="22894594#1" to="483638949#1"/>
    <trip id="bus29" type="bus_bus" depart="91.93" departLane="best" departSpeed="max" from="436693572#0" to="452636498#7"/>
    <trip id="bus31" type="bus_bus" depart="98.27" departLane="best" departSpeed="max" from="-452636498#11" to="1028542371#2"/>
    <trip id="bus32" type="bus_bus" depart="101.44" departLane="best" from="1000624456" to="452636498#7"/>
    <trip id="bus33" type="bus_bus" depart="104.61" departLane="best" departSpeed="max" from="22894721#0" to="461097291"/>
    <trip id="bus34" type="bus_bus" depart="107.78" departLane="best" from="-452636498#1" to="22894743#3"/>
    <trip id="bus40" type="bus_bus" depart="126.80" departLane="best" departSpeed="max" from="-452636498#11" to="965359272#0"/>
    <trip id="bus42" type="bus_bus" depart="133.14" departLane="best" departSpeed="max" from="22894721#0" to="965376412#2"/>
    <trip id="bus43" type="bus_bus" depart="136.31" departLane="best" departSpeed="max" from="965359259" to="-965939908#2"/>
    <trip id="bus46" type="bus_bus" depart="145.82" departLane="best" from="-452636498#2" to="22894740#2"/>
    <trip id="bus47" type="bus_bus" depart="148.99" departLane="best" departSpeed="max" from="517282317#0" to="22894594#2"/>
    <trip id="bus48" type="bus_bus" depart="152.16" departLane="best" from="452245665#2" to="38323569#1"/>
    <trip id="bus49" type="bus_bus" depart="155.33" departLane="best" from="219035198#2" to="452636498#7"/>
    <trip id="bus50" type="bus_bus" depart="158.51" departLane="best" from="436693568#1" to="452636498#7"/>
    <trip id="bus52" type="bus_bus" depart="164.85" departLane="best" departSpeed="max" from="22894721#0" to="965359262#1"/>
    <trip id="bus57" type="bus_bus" depart="180.70" departLane="best" departSpeed="max" from="-452636498#11" to="38323569#1"/>
    <trip id="bus58" type="bus_bus" depart="183.87" departLane="best" from="-452636498#1" to="22894594#2"/>
    <trip id="bus60" type="bus_bus" depart="190.21" departLane="best" departSpeed="max" from="436682108" to="165087293#1"/>
    <trip id="bus61" type="bus_bus" depart="193.38" departLane="best" from="-452636498#2" to="22894740#1"/>
    <trip id="bus62" type="bus_bus" depart="196.55" departLane="best" departSpeed="max" from="436682108" to="-452636498#2"/>
    <trip id="bus63" type="bus_bus" depart="199.72" departLane="best" from="461097294#0" to="38323569#1"/>
    <trip id="bus64" type="bus_bus" depart="202.89" departLane="best" departSpeed="max" from="965359259" to="436682105"/>
    <trip id="bus66" type="bus_bus" depart="209.23" departLane="best" departSpeed="max" from="-452636498#11" to="219035198#1"/>
    <trip id="bus67" type="bus_bus" depart="212.40" departLane="best" departSpeed="max" from="22894721#0" to="-452636498#1"/>
    <trip id="bus69" type="bus_bus" depart="218.74" departLane="best" departSpeed="max" from="965359259" to="22894723#1"/>
    <trip id="bus70" type="bus_bus" depart="221.91" departLane="best" from="-452636498#6" to="483638949#1"/>
    <trip id="bus72" type="bus_bus" depart="228.25" departLane="best" from="-452636498#2" to="22894744#0"/>
    <trip id="bus73" type="bus_bus" depart="231.42" departLane="best" departSpeed="max" from="22894721#0" to="-452636498#1"/>
    <trip id="bus74" type="bus_bus" depart="234.59" departLane="best" departSpeed="max" from="-452636498#11" to="483638949#1"/>
    <trip id="bus75" type="bus_bus" depart="237.76" departLane="best" departSpeed="max" from="965359259" to="22894721#1"/>
    <trip id="bus76" type="bus_bus" depart="240.93" departLane="best" departSpeed="max" from="436682108" to="22894597#1"/>
    <trip id="bus77" type="bus_bus" depart="244.10" departLane="best" departSpeed="max" from="22894596" to="484667608"/>
    <trip id="bus78" type="bus_bus" depart="247.27" departLane="best" departSpeed="max" from="22894723#0" to="965359271"/>
    <trip id="bus79" type="bus_bus" depart="250.44" departLane="best" departSpeed="max" from="461097293" to="452245665#3"/>
    <trip id="bus80" type="bus_bus" depart="253.61" departLane="best" departSpeed="max" from="-452636498#11" to="165087293#1"/>
    <trip id="bus82" type="bus_bus" depart="259.95" departLane="best" departSpeed="max" from="517282317#0" to="22894594#2"/>
    <trip id="bus84" type="bus_bus" depart="266.29" departLane="best" departSpeed="max" from="22894596" to="-965939908#2"/>
    <trip id="bus85" type="bus_bus" depart="269.46" departLane="best" from="965376412#0" to="38323569#1"/>
    <trip id="bus86" type="bus_bus" depart="272.63" departLane="best" from="-452636498#1" to="452245665#3"/>
    <trip id="bus88" type="bus_bus" depart="278.97" departLane="best" departSpeed="max" from="517282317#0" to="965376721#1"/>
    <trip id="bus89" type="bus_bus" depart="282.14" departLane="best" from="1176284082#0" to="452636498#7"/>
    <trip id="bus90" type="bus_bus" depart="285.31" departLane="best" departSpeed="max" from="965359259" to="452245665#2"/>
    <trip id="bus91" type="bus_bus" depart="288.48" departLane="best" from="-452636498#6" to="965376408#0"/>
    <trip id="bus92" type="bus_bus" depart="291.65" departLane="best" departSpeed="max" from="-484667608" to="22894594#2"/>
    <trip id="bus93" type="bus_bus" depart="294.82" departLane="best" departSpeed="max" from="22894596" to="1000624457#0"/>
    <trip id="bus94" type="bus_bus" depart="297.99" departLane="best" departSpeed="max" from="965382857#0" to="38323569#1"/>
    <trip id="bus96" type="bus_bus" depart="304.33" departLane="best" departSpeed="max" from="-452636498#11" to="965382811#0"/>
    <trip id="bus97" type="bus_bus" depart="307.50" departLane="best" departSpeed="max" from="22894721#0" to="-452636498#4"/>
    <trip id="bus98" type="bus_bus" depart="310.67" departLane="best" departSpeed="max" from="22894596" to="965376412#4"/>
    <trip id="bus100" type="bus_bus" depart="317.01" departLane="best" departSpeed="max" from="22894721#0" to="965382811#1"/>
    <trip id="bus102" type="bus_bus" depart="323.35" departLane="best" departSpeed="max" from="965939908#0" to="965376408#0"/>
    <trip id="bus103" type="bus_bus" depart="326.52" departLane="best" from="965359272#0" to="38323569#1"/>
    <trip id="bus104" type="bus_bus" depart="329.69" departLane="best" from="461097294#0" to="38323569#1"/>
    <trip id="bus105" type="bus_bus" depart="332.86" departLane="best" departSpeed="max" from="22894596" to="517282315#1"/>
    <trip id="bus106" type="bus_bus" depart="336.03" departLane="best" departSpeed="max" from="965939908#0" to="165087293#1"/>
    <trip id="bus107" type="bus_bus" depart="339.20" departLane="best" from="965382833#0" to="38323569#1"/>
    <trip id="bus108" type="bus_bus" depart="342.37" departLane="best" departSpeed="max" from="22894596" to="483638949#1"/>
    <trip id="bus109" type="bus_bus" depart="345.54" departLane="best" departSpeed="max" from="22894596" to="22894594#0"/>
    <trip id="bus111" type="bus_bus" depart="351.88" departLane="best" departSpeed="max" from="965359259" to="-452636498#1"/>
    <trip id="bus112" type="bus_bus" depart="355.05" departLane="best" departSpeed="max" from="517282317#0" to="452636498#7"/>
    <trip id="bus113" type="bus_bus" depart="358.22" departLane="best" departSpeed="max" from="965939908#0" to="38323569#1"/>
    <trip id="bus114" type="bus_bus" depart="361.39" departLane="best" from="-219035198#1" to="38323569#1"/>
    <trip id="bus115" type="bus_bus" depart="364.56" departLane="best" from="-452636498#6" to="965359262#1"/>
    <trip id="bus116" type="bus_bus" depart="367.73" departLane="best" from="22894726#1" to="22894594#2"/>
    <trip id="bus117" type="bus_bus" depart="370.90" departLane="best" from="-452636498#0" to="452245665#3"/>
    <trip id="bus118" type="bus_bus" depart="374.07" departLane="best" departSpeed="max" from="-452636498#11" to="452245665#3"/>
    <trip id="bus119" type="bus_bus" depart="377.24" departLane="best" departSpeed="max" from="22894596" to="22894721#1"/>
    <trip id="bus123" type="bus_bus" depart="389.92" departLane="best" departSpeed="max" from="22894596" to="483638949#1"/>
    <trip id="bus124" type="bus_bus" depart="393.09" departLane="best" from="461097292#0" to="452636498#7"/>
    <trip id="bus125" type="bus_bus" depart="396.26" departLane="best" from="-452636498#0" to="965376721#1"/>
    <trip id="bus126" type="bus_bus" depart="399.43" departLane="best" from="-452636498#6" to="22894594#2"/>
    <trip id="bus127" type="bus_bus" depart="402.60" departLane="best" departSpeed="max" from="22894596" to="461097291"/>
    <trip id="bus129" type="bus_bus" depart="408.94" departLane="best" from="22894723#1" to="483638949#1"/>
    <trip id="bus131" type="bus_bus" depart="415.28" departLane="best" from="22894597#1" to="38323569#1"/>
    <trip id="bus132" type="bus_bus" depart="418.45" departLane="best" departSpeed="max" from="-452636498#11" to="965359272#0"/>
    <trip id="bus133" type="bus_bus" depart="421.62" departLane="best" departSpeed="max" from="-452636498#11" to="-452636498#2"/>
    <trip id="bus134" type="bus_bus" depart="424.79" departLane="best" departSpeed="max" from="22894723#0" to="22894726#2"/>
    <trip id="bus135" type="bus_bus" depart="427.96" departLane="best" departSpeed="max" from="965359259" to="165087293#1"/>
    <trip id="bus139" type="bus_bus" depart="440.64" departLane="best" from="-452636498#4" to="38323569#1"/>
    <trip id="bus142" type="bus_bus" depart="450.15" departLane="best" departSpeed="max" from="461097293" to="38323569#1"/>
    <trip id="bus143" type="bus_bus" depart="453.32" departLane="best" departSpeed="max" from="-452636498#11" to="452245664"/>
    <trip id="bus146" type="bus_bus" depart="462.83" departLane="best" departSpeed="max" from="22894723#0" to="22894743#3"/>
    <trip id="bus147" type="bus_bus" depart="466.00" departLane="best" departSpeed="max" from="-452636498#11" to="460561514#1"/>
    <trip id="bus148" type="bus_bus" depart="469.17" departLane="best" departSpeed="max" from="22894721#0" to="-452636498#2"/>
    <trip id="bus149" type="bus_bus" depart="472.34" departLane="best" from="-452636498#4" to="22894744#0"/>
    <trip id="bus150" type="bus_bus" depart="475.52" departLane="best" from="22894594#1" to="1028542371#2"/>
    <trip id="bus152" type="bus_bus" depart="481.86" departLane="best" from="-452636498#1" to="22894744#1"/>
    <trip id="bus153" type="bus_bus" depart="485.03" departLane="best" from="22894723#1" to="452636498#7"/>
    <trip id="bus155" type="bus_bus" depart="491.37" departLane="best" departSpeed="max" from="-452636498#11" to="-452636498#2"/>
    <trip id="bus157" type="bus_bus" depart="497.71" departLane="best" from="219035198#2" to="22894594#2"/>
    <trip id="bus158" type="bus_bus" depart="500.88" departLane="best" departSpeed="max" from="461097293" to="38323569#1"/>
    <trip id="bus159" type="bus_bus" depart="504.05" departLane="best" from="-452636498#6" to="22894738#2"/>
    <trip id="bus160" type="bus_bus" depart="507.22" departLane="best" departSpeed="max" from="22894721#0" to="484667608"/>
    <trip id="bus162" type="bus_bus" depart="513.56" departLane="best" departSpeed="max" from="-484667608" to="38323569#1"/>
    <trip id="bus163" type="bus_bus" depart="516.73" departLane="best" from="-452636498#4" to="38323569#1"/>
    <trip id="bus164" type="bus_bus" depart="519.90" departLane="best" from="-22894744#0" to="38323569#1"/>
    <trip id="bus165" type="bus_bus" depart="523.07" departLane="best" departSpeed="max" from="22894721#0" to="22894743#2"/>
    <trip id="bus167" type="bus_bus" depart="529.41" departLane="best" departSpeed="max" from="22894721#0" to="22894744#1"/>
    <trip id="bus169" type="bus_bus" depart="535.75" departLane="best" from="-452636498#2" to="965376404#0"/>
    <trip id="bus170" type="bus_bus" depart="538.92" departLane="best" departSpeed="max" from="22894723#0" to="452636498#7"/>
    <trip id="bus171" type="bus_bus" depart="542.09" departLane="best" departSpeed="max" from="436682108" to="1028542371#2"/>
    <trip id="bus178" type="bus_bus" depart="564.28" departLane="best" from="-452636498#6" to="22894740#0"/>
    <trip id="bus179" type="bus_bus" depart="567.45" departLane="best" departSpeed="max" from="-452636498#11" to="965359262#0"/>
    <trip id="bus180" type="bus_bus" depart="570.62" departLane="best" departSpeed="max" from="-452636498#11" to="483638949#1"/>
    <trip id="bus181" type="bus_bus" depart="573.79" departLane="best" departSpeed="max" from="965359259" to="1000624457#1"/>
    <trip id="bus182" type="bus_bus" depart="576.96" departLane="best" from="436693568#0" to="22894594#2"/>
    <trip id="bus183" type="bus_bus" depart="580.13" departLane="best" departSpeed="max" from="-452636498#11" to="965359262#0"/>
    <trip id="bus184" type="bus_bus" depart="583.30" departLane="best" departSpeed="max" from="22894723#0" to="22894744#0"/>
    <trip id="bus185" type="bus_bus" depart="586.47" departLane="best" from="-22894744#0" to="38323569#1"/>
    <trip id="bus187" type="bus_bus" depart="592.81" departLane="best" from="-452636498#6" to="483638949#1"/>
    <trip id="bus190" type="bus_bus" depart="602.32" departLane="best" departSpeed="max" from="-20673456" to="38323569#1"/>
    <trip id="bus191" type="bus_bus" depart="605.49" departLane="best" from="436693564#1" to="38323569#1"/>
    <trip id="bus192" type="bus_bus" depart="608.66" departLane="best" departSpeed="max" from="965359259" to="22894597#1"/>
    <trip id="bus193" type="bus_bus" depart="611.83" departLane="best" departSpeed="max" from="965359259" to="460561514#0"/>
    <trip id="bus194" type="bus_bus" depart="615.00" departLane="best" departSpeed="max" from="22894721#0" to="-452636498#1"/>
    <trip id="bus196" type="bus_bus" depart="621.34" departLane="best" from="-452636498#0" to="483638949#1"/>
    <trip id="bus197" type="bus_bus" depart="624.51" departLane="best" departSpeed="max" from="517282317#0" to="1028542371#2"/>
    <trip id="bus198" type="bus_bus" depart="627.68" departLane="best" departSpeed="max" from="22894723#0" to="483638949#1"/>
    <trip id="bus200" type="bus_bus" depart="634.02" departLane="best" departSpeed="max" from="965939908#0" to="38323569#1"/>
    <trip id="bus201" type="bus_bus" depart="637.19" departLane="best" from="436693571" to="22894594#2"/>
    <trip id="bus206" type="bus_bus" depart="653.04" departLane="best" departSpeed="max" from="965939908#0" to="965376721#1"/>
    <trip id="bus207" type="bus_bus" depart="656.21" departLane="best" departSpeed="max" from="-452636498#11" to="452245665#3"/>
    <trip id="bus208" type="bus_bus" depart="659.38" departLane="best" departSpeed="max" from="22894723#0" to="484667608"/>
    <trip id="bus209" type="bus_bus" depart="662.55" departLane="best" from="-452636498#0" to="483638949#1"/>
    <trip id="bus210" type="bus_bus" depart="665.72" departLane="best" departSpeed="max" from="517282317#0" to="38323569#1"/>
    <trip id="bus212" type="bus_bus" depart="672.06" departLane="best" departSpeed="max" from="22894596" to="965376408#0"/>
    <trip id="bus213" type="bus_bus" depart="675.23" departLane="best" departSpeed="max" from="-452636498#11" to="-452636498#1"/>
    <trip id="bus216" type="bus_bus" depart="684.74" departLane="best" from="965359262#0" to="38323569#1"/>
    <trip id="bus217" type="bus_bus" depart="687.91" departLane="best" departSpeed="max" from="-452636498#11" to="22894594#2"/>
    <trip id="bus218" type="bus_bus" depart="691.08" departLane="best" departSpeed="max" from="965939908#0" to="452636498#7"/>
    <trip id="bus220" type="bus_bus" depart="697.42" departLane="best" departSpeed="max" from="22894723#0" to="965359271"/>
    <trip id="bus221" type="bus_bus" depart="700.59" departLane="best" departSpeed="max" from="965359259" to="452245665#3"/>
    <trip id="bus223" type="bus_bus" depart="706.93" departLane="best" departSpeed="max" from="22894721#0" to="452636498#7"/>
    <trip id="bus224" type="bus_bus" depart="710.10" departLane="best" departSpeed="max" from="22894723#0" to="965376412#3"/>
    <trip id="bus225" type="bus_bus" depart="713.27" departLane="best" departSpeed="max" from="436682108" to="1028542371#2"/>
    <trip id="bus227" type="bus_bus" depart="719.61" departLane="best" from="460561514#1" to="452636498#7"/>
    <trip id="bus229" type="bus_bus" depart="725.95" departLane="best" departSpeed="max" from="22894596" to="965382773"/>
    <trip id="bus230" type="bus_bus" depart="729.12" departLane="best" departSpeed="max" from="22894721#0" to="452636498#7"/>
    <trip id="bus231" type="bus_bus" depart="732.29" departLane="best" departSpeed="max" from="22894721#0" to="22894744#0"/>
    <trip id="bus233" type="bus_bus" depart="738.63" departLane="best" departSpeed="max" from="-452636498#11" to="219035198#2"/>
    <trip id="bus235" type="bus_bus" depart="744.97" departLane="best" from="436693572#2" to="22894594#2"/>
    <trip id="bus236" type="bus_bus" depart="748.14" departLane="best" departSpeed="max" from="436682108" to="38323569#1"/>
    <trip id="bus237" type="bus_bus" depart="751.31" departLane="best" departSpeed="max" from="965382857#0" to="38323569#1"/>
    <trip id="bus240" type="bus_bus" depart="760.82" departLane="best" from="461097292#1" to="22894594#2"/>
    <trip id="bus241" type="bus_bus" depart="763.99" departLane="best" from="452245665#2" to="38323569#1"/>
    <trip id="bus242" type="bus_bus" depart="767.16" departLane="best" departSpeed="max" from="22894721#0" to="452245665#0"/>
    <trip id="bus243" type="bus_bus" depart="770.33" departLane="best" departSpeed="max" from="22894721#0" to="484667608"/>
    <trip id="bus244" type="bus_bus" depart="773.50" departLane="best" from="436693568#0" to="452636498#7"/>
    <trip id="bus246" type="bus_bus" depart="779.84" departLane="best" from="436693572#2" to="452636498#7"/>
    <trip id="bus252" type="bus_bus" depart="798.87" departLane="best" from="436693564#0" to="22894594#2"/>
    <trip id="bus253" type="bus_bus" depart="802.04" departLane="best" departSpeed="max" from="965359259" to="452636498#7"/>
    <trip id="bus255" type="bus_bus" depart="808.38" departLane="best" departSpeed="max" from="22894721#0" to="22894721#1"/>
    <trip id="bus256" type="bus_bus" depart="811.55" departLane="best" departSpeed="max" from="22894596" to="1000624456"/>
    <trip id="bus257" type="bus_bus" depart="814.72" departLane="best" departSpeed="max" from="22894596" to="219035198#1"/>
    <trip id="bus258" type="bus_bus" depart="817.89" departLane="best" departSpeed="max" from="965359259" to="-219035198#0"/>
    <trip id="bus259" type="bus_bus" depart="821.06" departLane="best" departSpeed="max" from="22894721#0" to="452245665#3"/>
    <trip id="bus262" type="bus_bus" depart="830.57" departLane="best" from="436693571" to="38323569#1"/>
    <trip id="bus263" type="bus_bus" depart="833.74" departLane="best" from="-452636498#4" to="1028542371#1"/>
    <trip id="bus264" type="bus_bus" depart="836.91" departLane="best" from="965359271" to="38323569#1"/>
    <trip id="bus267" type="bus_bus" depart="846.42" departLane="best" departSpeed="max" from="517282317#0" to="965382773"/>
    <trip id="bus268" type="bus_bus" depart="849.59" departLane="best" from="22894597#0" to="452636498#7"/>
    <trip id="bus269" type="bus_bus" depart="852.76" departLane="best" from="-452636498#6" to="22894594#2"/>
    <trip id="bus271" type="bus_bus" depart="859.10" departLane="best" departSpeed="max" from="22894721#0" to="-965939908#2"/>
    <trip id="bus275" type="bus_bus" depart="871.78" departLane="best" departSpeed="max" from="-452636498#11" to="38323569#1"/>
    <trip id="bus276" type="bus_bus" depart="874.95" departLane="best" from="965359267" to="452636498#7"/>
    <trip id="bus279" type="bus_bus" depart="884.46" departLane="best" from="-452636498#6" to="22894740#0"/>
    <trip id="bus280" type="bus_bus" depart="887.63" departLane="best" from="436693564#1" to="452636498#7"/>
    <trip id="bus282" type="bus_bus" depart="893.97" departLane="best" departSpeed="max" from="22894596" to="965376412#3"/>
    <trip id="bus283" type="bus_bus" depart="897.14" departLane="best" departSpeed="max" from="-452636498#11" to="22894744#1"/>
    <trip id="bus285" type="bus_bus" depart="903.48" departLane="best" from="-22894744#0" to="38323569#1"/>
    <trip id="bus286" type="bus_bus" depart="906.65" departLane="best" departSpeed="max" from="22894596" to="484667608"/>
    <trip id="bus287" type="bus_bus" depart="909.82" departLane="best" departSpeed="max" from="517282317#0" to="22894594#2"/>
    <trip id="bus288" type="bus_bus" depart="912.99" departLane="best" departSpeed="max" from="22894721#0" to="-452636498#0"/>
    <trip id="bus290" type="bus_bus" depart="919.33" departLane="best" departSpeed="max" from="965359259" to="22894594#2"/>
    <trip id="bus292" type="bus_bus" depart="925.67" departLane="best" from="22894597#0" to="452636498#7"/>
    <trip id="bus293" type="bus_bus" depart="928.84" departLane="best" from="-452636498#6" to="965376412#0"/>
    <trip id="bus295" type="bus_bus" depart="935.18" departLane="best" departSpeed="max" from="22894721#0" to="965382773"/>
    <trip id="bus296" type="bus_bus" depart="938.35" departLane="best" from="1000624456" to="965376408#0"/>
    <trip id="bus298" type="bus_bus" depart="944.69" departLane="best" departSpeed="max" from="436682108" to="38323569#1"/>
    <trip id="bus301" type="bus_bus" depart="954.20" departLane="best" from="-452636498#4" to="38323569#1"/>
    <trip id="bus302" type="bus_bus" depart="957.37" departLane="best" departSpeed="max" from="-484667608" to="452636498#7"/>
    <trip id="bus303" type="bus_bus" depart="960.54" departLane="best" from="1176284082#0" to="452636498#7"/>
    <trip id="bus304" type="bus_bus" depart="963.71" departLane="best" departSpeed="max" from="-20673456" to="38323569#1"/>
    <trip id="bus306" type="bus_bus" depart="970.05" departLane="best" departSpeed="max" from="-452636498#11" to="1000624457#1"/>
    <trip id="bus307" type="bus_bus" depart="973.22" departLane="best" departSpeed="max" from="965939908#0" to="165087293#1"/>
    <trip id="bus308" type="bus_bus" depart="976.39" departLane="best" departSpeed="max" from="-484667608" to="38323569#1"/>
    <trip id="bus309" type="bus_bus" depart="979.56" departLane="best" departSpeed="max" from="-452636498#11" to="436682106"/>
    <trip id="bus310" type="bus_bus" depart="982.73" departLane="best" departSpeed="max" from="-452636498#11" to="965376412#1"/>
    <trip id="bus311" type="bus_bus" depart="985.90" departLane="best" departSpeed="max" from="22894721#0" to="965382811#0"/>
    <trip id="bus312" type="bus_bus" depart="989.07" departLane="best" departSpeed="max" from="-452636498#11" to="1028542371#1"/>
    <trip id="bus313" type="bus_bus" depart="992.24" departLane="best" departSpeed="max" from="22894721#0" to="-461097292#0"/>
    <trip id="bus314" type="bus_bus" depart="995.41" departLane="best" from="517282315#1" to="38323569#1"/>
    <trip id="bus315" type="bus_bus" depart="998.58" departLane="best" departSpeed="max" from="22894723#0" to="461097294#0"/>
    <trip id="bus317" type="bus_bus" depart="1004.92" departLane="best" departSpeed="max" from="-452636498#11" to="452245665#1"/>
    <trip id="bus319" type="bus_bus" depart="1011.26" departLane="best" departSpeed="max" from="-452636498#11" to="1000624457#1"/>
    <trip id="bus320" type="bus_bus" depart="1014.43" departLane="best" departSpeed="max" from="461097293" to="452245665#3"/>
    <trip id="bus321" type="bus_bus" depart="1017.60" departLane="best" departSpeed="max" from="517282317#0" to="22894594#2"/>
    <trip id="bus322" type="bus_bus" depart="1020.77" departLane="best" departSpeed="max" from="22894596" to="1000624457#1"/>
    <trip id="bus325" type="bus_bus" depart="1030.28" departLane="best" departSpeed="max" from="22894721#0" to="22894726#0"/>
    <trip id="bus326" type="bus_bus" depart="1033.45" departLane="best" departSpeed="max" from="22894596" to="22894726#0"/>
    <trip id="bus327" type="bus_bus" depart="1036.62" departLane="best" departSpeed="max" from="-452636498#11" to="965376721#1"/>
    <trip id="bus328" type="bus_bus" depart="1039.79" departLane="best" departSpeed="max" from="436693572#0" to="1028542371#2"/>
    <trip id="bus329" type="bus_bus" depart="1042.96" departLane="best" from="22894597#0" to="38323569#1"/>
    <trip id="bus332" type="bus_bus" depart="1052.47" departLane="best" departSpeed="max" from="22894721#0" to="965376721#1"/>
    <trip id="bus333" type="bus_bus" depart="1055.64" departLane="best" from="1000624456" to="22894594#2"/>
    <trip id="bus334" type="bus_bus" depart="1058.81" departLane="best" departSpeed="max" from="22894596" to="452636498#5"/>
    <trip id="bus335" type="bus_bus" depart="1061.98" departLane="best" departSpeed="max" from="22894596" to="452636498#3"/>
    <trip id="bus336" type="bus_bus" depart="1065.15" departLane="best" from="460561514#1" to="452636498#7"/>
    <trip id="bus337" type="bus_bus" depart="1068.32" departLane="best" from="965382833#0" to="452636498#3"/>
    <trip id="bus338" type="bus_bus" depart="1071.49" departLane="best" departSpeed="max" from="22894723#0" to="965376404#0"/>
    <trip id="bus339" type="bus_bus" depart="1074.66" departLane="best" departSpeed="max" from="-452636498#11" to="461097294#0"/>
    <trip id="bus340" type="bus_bus" depart="1077.83" departLane="best" departSpeed="max" from="965359259" to="436695031#1"/>
    <trip id="bus341" type="bus_bus" depart="1081.00" departLane="best" departSpeed="max" from="436682108" to="22894597#1"/>
    <trip id="bus343" type="bus_bus" depart="1087.34" departLane="best" from="-452636498#6" to="965376412#3"/>