<?xml version="1.0" encoding="UTF-8"?>

<!-- generated on 2023-11-27 23:10:27.169910 by osmWebWizard.py v1_18_0+0000-03ecfdea036
<configuration>
    <net-file value="C:\Users\owner\Sumo\2023-11-27-23-10-20\osm.net.xml.gz"/>
    <output-trip-file value="C:\Users\owner\Sumo\2023-11-27-23-10-20\osm.passenger.trips.xml"/>
    <route-file value="C:\Users\owner\Sumo\2023-11-27-23-10-20\osm.passenger.rou.xml"/>
    <prefix value="veh"/>
    <trip-attributes value="departLane=&quot;best&quot;"/>
    <fringe-start-attributes value="departSpeed=&quot;max&quot;"/>
    <vehicle-class value="passenger"/>
    <lanes value="True"/>
    <fringe-factor value="4"/>
    <allow-fringe.min-length value="1000.0"/>
    <via-edge-types value="highway.motorway,highway.motorway_link,highway.trunk_link,highway.primary_link,highway.secondary_link,highway.tertiary_link"/>
    <min-distance value="300.0"/>
    <min-distance.fringe value="10.0"/>
    <remove-loops value="True"/>
    <validate value="True"/>
    <insertion-density value="300.0"/>
</configuration>
-->

<!-- generated on 2023-11-27 23:10:26 by Eclipse SUMO duarouter Version 1.18.0
<configuration xmlns:xsi="http://www.w3.org/2001/XMLSchema-instance" xsi:noNamespaceSchemaLocation="http://sumo.dlr.de/xsd/duarouterConfiguration.xsd">

    <input>
        <net-file value="C:\Users\owner\Sumo\2023-11-27-23-10-20\osm.net.xml.gz"/>
        <route-files value="C:\Users\owner\Sumo\2023-11-27-23-10-20\osm.passenger.trips.xml"/>
    </input>

    <output>
        <output-file value="C:\Users\owner\Sumo\2023-11-27-23-10-20\osm.passenger.trips.xml.tmp"/>
        <alternatives-output value="NUL"/>
        <write-trips value="true"/>
    </output>

    <processing>
        <remove-loops value="true"/>
    </processing>

    <time>
        <begin value="0.0"/>
        <end value="3600.0"/>
    </time>

    <report>
        <no-warnings value="true"/>
        <ignore-errors value="true"/>
        <no-step-log value="true"/>
    </report>

</configuration>
-->

<routes xmlns:xsi="http://www.w3.org/2001/XMLSchema-instance" xsi:noNamespaceSchemaLocation="http://sumo.dlr.de/xsd/routes_file.xsd">
    <vType id="veh_passenger" vClass="passenger"/>
    <trip id="veh1" type="veh_passenger" depart="0.43" departLane="best" departSpeed="max" from="517282317#0" to="452636498#5"/>
    <trip id="veh3" type="veh_passenger" depart="1.29" departLane="best" departSpeed="max" from="436682108" to="452636498#3"/>
    <trip id="veh7" type="veh_passenger" depart="3.01" departLane="best" departSpeed="max" from="965359259" to="22894744#1"/>
    <trip id="veh8" type="veh_passenger" depart="3.44" departLane="best" departSpeed="max" from="965359259" to="452636498#7"/>
    <trip id="veh9" type="veh_passenger" depart="3.87" departLane="best" from="436682105" to="165087293#0"/>
    <trip id="veh11" type="veh_passenger" depart="4.73" departLane="best" from="965359272#2" to="452245665#3"/>
    <trip id="veh12" type="veh_passenger" depart="5.16" departLane="best" departSpeed="max" from="965359259" to="460561514#1"/>
    <trip id="veh13" type="veh_passenger" depart="5.59" departLane="best" departSpeed="max" from="436682108" to="436695031#1"/>
    <trip id="veh14" type="veh_passenger" depart="6.02" departLane="best" departSpeed="max" from="22894721#0" to="22894721#1"/>
    <trip id="veh17" type="veh_passenger" depart="7.31" departLane="best" from="460561515#0" to="22894744#1"/>
    <trip id="veh18" type="veh_passenger" depart="7.74" departLane="best" departSpeed="max" from="436682108" to="219035198#0"/>
    <trip id="veh23" type="veh_passenger" depart="9.88" departLane="best" departSpeed="max" from="22894721#0" to="-452636498#4"/>
    <trip id="veh25" type="veh_passenger" depart="10.74" departLane="best" departSpeed="max" from="22894596" to="965382811#0"/>
    <trip id="veh27" type="veh_passenger" depart="11.60" departLane="best" departSpeed="max" from="22894723#0" to="22894594#2"/>
    <trip id="veh30" type="veh_passenger" depart="12.89" departLane="best" departSpeed="max" from="436682108" to="219035198#1"/>
    <trip id="veh31" type="veh_passenger" depart="13.32" departLane="best" departSpeed="max" from="-484667608" to="-965939908#2"/>
    <trip id="veh33" type="veh_passenger" depart="14.18" departLane="best" departSpeed="max" from="965359259" to="436682106"/>
    <trip id="veh35" type="veh_passenger" depart="15.04" departLane="best" departSpeed="max" from="965382857#0" to="965359268#1"/>
    <trip id="veh40" type="veh_passenger" depart="17.19" departLane="best" from="436693568#0" to="965382812#1"/>
    <trip id="veh42" type="veh_passenger" depart="18.05" departLane="best" departSpeed="max" from="436693572#0" to="165087293#1"/>
    <trip id="veh44" type="veh_passenger" depart="18.91" departLane="best" from="460561514#0" to="165087293#0"/>
    <trip id="veh45" type="veh_passenger" depart="19.34" departLane="best" departSpeed="max" from="965359259" to="436695031#1"/>
    <trip id="veh46" type="veh_passenger" depart="19.77" departLane="best" departSpeed="max" from="965359259" to="436695031#1"/>
    <trip id="veh52" type="veh_passenger" depart="22.35" departLane="best" departSpeed="max" from="965359259" to="1176284081#2"/>
    <trip id="veh54" type="veh_passenger" depart="23.21" departLane="best" departSpeed="max" from="436682108" to="219035198#0"/>
    <trip id="veh55" type="veh_passenger" depart="23.64" departLane="best" departSpeed="max" from="22894596" to="22894723#1"/>
    <trip id="veh56" type="veh_passenger" depart="24.07" departLane="best" from="436693564#1" to="436695031#1"/>
    <trip id="veh57" type="veh_passenger" depart="24.50" departLane="best" from="1176284081#0" to="219035198#2"/>
    <trip id="veh58" type="veh_passenger" depart="24.93" departLane="best" departSpeed="max" from="22894721#0" to="219035198#1"/>
    <trip id="veh62" type="veh_passenger" depart="26.65" departLane="best" departSpeed="max" from="22894721#0" to="-452636498#4"/>
    <trip id="veh64" type="veh_passenger" depart="27.50" departLane="best" from="436693568#1" to="483638949#1"/>
    <trip id="veh65" type="veh_passenger" depart="27.93" departLane="best" departSpeed="max" from="965359259" to="165087293#1"/>
    <trip id="veh67" type="veh_passenger" depart="28.79" departLane="best" departSpeed="max" from="517282317#0" to="452636498#3"/>
    <trip id="veh68" type="veh_passenger" depart="29.22" departLane="best" from="965382857#1" to="1028542371#1"/>
    <trip id="veh71" type="veh_passenger" depart="30.51" departLane="best" departSpeed="max" from="436682108" to="22894597#1"/>
    <trip id="veh76" type="veh_passenger" depart="32.66" departLane="best" departSpeed="max" from="436682108" to="1000624456"/>
    <trip id="veh79" type="veh_passenger" depart="33.95" departLane="best" departSpeed="max" from="436693572#0" to="965359268#1"/>
    <trip id="veh91" type="veh_passenger" depart="39.11" departLane="best" from="-452636498#6" to="219035198#0"/>
    <trip id="veh93" type="veh_passenger" depart="39.97" departLane="best" departSpeed="max" from="436682108" to="165087293#1"/>
    <trip id="veh94" type="veh_passenger" depart="40.40" departLane="best" from="965359267" to="452636498#7"/>
    <trip id="veh101" type="veh_passenger" depart="43.41" departLane="best" departSpeed="max" from="436693572#0" to="965376404#0"/>
    <trip id="veh103" type="veh_passenger" depart="44.27" departLane="best" departSpeed="max" from="436682108" to="22894597#1"/>
    <trip id="veh106" type="veh_passenger" depart="45.55" departLane="best" from="436693564#0" to="-452636498#0"/>
    <trip id="veh109" type="veh_passenger" depart="46.84" departLane="best" departSpeed="max" from="965359259" to="965359268#1"/>
    <trip id="veh112" type="veh_passenger" depart="48.13" departLane="best" departSpeed="max" from="965359259" to="965359272#0"/>
    <trip id="veh115" type="veh_passenger" depart="49.42" departLane="best" departSpeed="max" from="965359259" to="965359270"/>
    <trip id="veh117" type="veh_passenger" depart="50.28" departLane="best" departSpeed="max" from="965359259" to="1028542371#2"/>
    <trip id="veh119" type="veh_passenger" depart="51.14" departLane="best" from="436693568#0" to="22894721#1"/>
    <trip id="veh120" type="veh_passenger" depart="51.57" departLane="best" departSpeed="max" from="965359259" to="219035198#2"/>
    <trip id="veh121" type="veh_passenger" depart="52.00" departLane="best" from="452636498#0" to="165087293#1"/>
    <trip id="veh122" type="veh_passenger" depart="52.43" departLane="best" from="965382833#2" to="22894597#1"/>
    <trip id="veh126" type="veh_passenger" depart="54.15" departLane="best" from="965382833#2" to="22894594#2"/>
    <trip id="veh129" type="veh_passenger" depart="55.44" departLane="best" departSpeed="max" from="517282317#0" to="452636498#3"/>
    <trip id="veh130" type="veh_passenger" depart="55.87" departLane="best" from="436682107" to="1000624457#0"/>
    <trip id="veh131" type="veh_passenger" depart="56.30" departLane="best" departSpeed="max" from="517282317#0" to="22894721#1"/>
    <trip id="veh132" type="veh_passenger" depart="56.73" departLane="best" from="22894740#2" to="38323569#1"/>
    <trip id="veh133" type="veh_passenger" depart="57.16" departLane="best" departSpeed="max" from="436682108" to="22894721#1"/>
    <trip id="veh134" type="veh_passenger" depart="57.59" departLane="best" from="965382833#0" to="452636498#5"/>
    <trip id="veh137" type="veh_passenger" depart="58.88" departLane="best" departSpeed="max" from="965359259" to="165087293#1"/>
    <trip id="veh140" type="veh_passenger" depart="60.17" departLane="best" departSpeed="max" from="22894596" to="452636498#2"/>
    <trip id="veh143" type="veh_passenger" depart="61.46" departLane="best" departSpeed="max" from="22894596" to="452636498#7"/>
    <trip id="veh144" type="veh_passenger" depart="61.89" departLane="best" departSpeed="max" from="436693572#0" to="22894594#2"/>
    <trip id="veh146" type="veh_passenger" depart="62.75" departLane="best" departSpeed="max" from="517282317#0" to="461097294#0"/>
    <trip id="veh150" type="veh_passenger" depart="64.46" departLane="best" from="965359267" to="436695031#1"/>
    <trip id="veh152" type="veh_passenger" depart="65.32" departLane="best" from="436693571" to="22894594#2"/>
    <trip id="veh154" type="veh_passenger" depart="66.18" departLane="best" departSpeed="max" from="965359259" to="436695031#1"/>
    <trip id="veh155" type="veh_passenger" depart="66.61" departLane="best" from="460561514#1" to="22894597#1"/>
    <trip id="veh157" type="veh_passenger" depart="67.47" departLane="best" departSpeed="max" from="22894723#0" to="22894726#2"/>
    <trip id="veh158" type="veh_passenger" depart="67.90" departLane="best" departSpeed="max" from="22894721#0" to="452636498#7"/>
    <trip id="veh159" type="veh_passenger" depart="68.33" departLane="best" from="517282315#1" to="1000624456"/>
    <trip id="veh160" type="veh_passenger" depart="68.76" departLane="best" departSpeed="max" from="436682108" to="436695031#1"/>
    <trip id="veh161" type="veh_passenger" depart="69.19" departLane="best" departSpeed="max" from="436682108" to="965376404#0"/>
    <trip id="veh162" type="veh_passenger" depart="69.62" departLane="best" from="452636498#1" to="452636498#7"/>
    <trip id="veh163" type="veh_passenger" depart="70.05" departLane="best" departSpeed="max" from="436682108" to="461097291"/>
    <trip id="veh164" type="veh_passenger" depart="70.48" departLane="best" from="22894597#0" to="219035198#1"/>
    <trip id="veh165" type="veh_passenger" depart="70.91" departLane="best" from="436693564#0" to="452636498#3"/>
    <trip id="veh167" type="veh_passenger" depart="71.77" departLane="best" departSpeed="max" from="436682108" to="165087293#1"/>
    <trip id="veh168" type="veh_passenger" depart="72.20" departLane="best" from="460561514#1" to="-452636498#2"/>
    <trip id="veh171" type="veh_passenger" depart="73.49" departLane="best" from="517282317#2" to="38323569#1"/>
    <trip id="veh172" type="veh_passenger" depart="73.92" departLane="best" departSpeed="max" from="517282317#0" to="965359263"/>
    <trip id="veh173" type="veh_passenger" depart="74.35" departLane="best" departSpeed="max" from="22894723#0" to="1000624457#1"/>
    <trip id="veh179" type="veh_passenger" depart="76.93" departLane="best" from="1176284081#0" to="452636498#3"/>
    <trip id="veh181" type="veh_passenger" depart="77.79" departLane="best" departSpeed="max" from="517282317#0" to="1176284081#0"/>
    <trip id="veh183" type="veh_passenger" depart="78.65" departLane="best" from="965382833#2" to="38323569#1"/>
    <trip id="veh184" type="veh_passenger" depart="79.08" departLane="best" from="517282315#1" to="1000624457#1"/>
    <trip id="veh185" type="veh_passenger" depart="79.51" departLane="best" departSpeed="max" from="461097293" to="452245665#3"/>
    <trip id="veh187" type="veh_passenger" depart="80.37" departLane="best" from="965359271" to="452245665#3"/>
    <trip id="veh188" type="veh_passenger" depart="80.80" departLane="best" departSpeed="max" from="965359259" to="452245665#2"/>
    <trip id="veh189" type="veh_passenger" depart="81.23" departLane="best" from="436693572#2" to="22894740#2"/>
    <trip id="veh193" type="veh_passenger" depart="82.94" departLane="best" from="965359267" to="1000624457#1"/>
    <trip id="veh195" type="veh_passenger" depart="83.80" departLane="best" from="436693568#1" to="452245665#3"/>
    <trip id="veh196" type="veh_passenger" depart="84.23" departLane="best" departSpeed="max" from="436682108" to="-452636498#2"/>
    <trip id="veh198" type="veh_passenger" depart="85.09" departLane="best" departSpeed="max" from="22894596" to="484667608"/>
    <trip id="veh206" type="veh_passenger" depart="88.53" departLane="best" departSpeed="max" from="436693572#0" to="460561514#1"/>
    <trip id="veh209" type="veh_passenger" depart="89.82" departLane="best" departSpeed="max" from="22894596" to="219035198#2"/>
    <trip id="veh211" type="veh_passenger" depart="90.68" departLane="best" from="965359267" to="38323569#1"/>
    <trip id="veh213" type="veh_passenger" depart="91.54" departLane="best" departSpeed="max" from="-452636498#11" to="165087293#0"/>
    <trip id="veh216" type="veh_passenger" depart="92.83" departLane="best" departSpeed="max" from="965359259" to="452245665#3"/>
    <trip id="veh217" type="veh_passenger" depart="93.26" departLane="best" departSpeed="max" from="965359259" to="219035198#2"/>
    <trip id="veh218" type="veh_passenger" depart="93.69" departLane="best" departSpeed="max" from="965939908#0" to="22894721#1"/>
    <trip id="veh220" type="veh_passenger" depart="94.55" departLane="best" departSpeed="max" from="22894596" to="219035198#0"/>
    <trip id="veh223" type="veh_passenger" depart="95.84" departLane="best" departSpeed="max" from="22894721#0" to="452636498#7"/>
    <trip id="veh224" type="veh_passenger" depart="96.27" departLane="best" departSpeed="max" from="461097293" to="965376412#2"/>
    <trip id="veh225" type="veh_passenger" depart="96.70" departLane="best" departSpeed="max" from="965359259" to="452245665#3"/>
    <trip id="veh226" type="veh_passenger" depart="97.13" departLane="best" departSpeed="max" from="436682108" to="436695031#1"/>
    <trip id="veh228" type="veh_passenger" depart="97.99" departLane="best" from="965359267" to="1000624457#1"/>
    <trip id="veh229" type="veh_passenger" depart="98.42" departLane="best" departSpeed="max" from="517282317#0" to="452245665#0"/>
    <trip id="veh231" type="veh_passenger" depart="99.28" departLane="best" departSpeed="max" from="436693572#0" to="1000624457#1"/>
    <trip id="veh236" type="veh_passenger" depart="101.42" departLane="best" departSpeed="max" from="436693572#0" to="1000624457#1"/>
    <trip id="veh239" type="veh_passenger" depart="102.71" departLane="best" departSpeed="max" from="436682108" to="436695031#1"/>
    <trip id="veh241" type="veh_passenger" depart="103.57" departLane="best" from="517282317#2" to="452245665#3"/>
    <trip id="veh243" type="veh_passenger" depart="104.43" departLane="best" from="436693564#1" to="452636498#7"/>
    <trip id="veh244" type="veh_passenger" depart="104.86" departLane="best" from="460561514#0" to="-452636498#0"/>
    <trip id="veh250" type="veh_passenger" depart="107.44" departLane="best" from="452245665#2" to="38323569#1"/>
    <trip id="veh252" type="veh_passenger" depart="108.30" departLane="best" from="22894723#1" to="484667608"/>
    <trip id="veh253" type="veh_passenger" depart="108.73" departLane="best" departSpeed="max" from="436682108" to="965376721#1"/>
    <trip id="veh254" type="veh_passenger" depart="109.16" departLane="best" from="22894726#0" to="22894721#1"/>
    <trip id="veh256" type="veh_passenger" depart="110.02" departLane="best" departSpeed="max" from="436693572#0" to="165087293#0"/>
    <trip id="veh258" type="veh_passenger" depart="110.88" departLane="best" from="22894594#1" to="452636498#7"/>
    <trip id="veh259" type="veh_passenger" depart="111.31" departLane="best" departSpeed="max" from="965359259" to="965382773"/>
    <trip id="veh260" type="veh_passenger" depart="111.74" departLane="best" departSpeed="max" from="517282317#0" to="452636498#7"/>
    <trip id="veh261" type="veh_passenger" depart="112.17" departLane="best" from="965359262#0" to="38323569#1"/>
    <trip id="veh266" type="veh_passenger" depart="114.32" departLane="best" departSpeed="max" from="517282317#0" to="38323569#1"/>
    <trip id="veh267" type="veh_passenger" depart="114.75" departLane="best" from="461097292#1" to="165087293#0"/>
    <trip id="veh268" type="veh_passenger" depart="115.18" departLane="best" from="436682105" to="452636498#7"/>
    <trip id="veh269" type="veh_passenger" depart="115.61" departLane="best" departSpeed="max" from="436682108" to="22894726#1"/>
    <trip id="veh274" type="veh_passenger" depart="117.75" departLane="best" departSpeed="max" from="-452636498#11" to="484667608"/>
    <trip id="veh276" type="veh_passenger" depart="118.61" departLane="best" from="1176284082#0" to="436695031#1"/>
    <trip id="veh277" type="veh_passenger" depart="119.04" departLane="best" from="965359272#0" to="452245665#3"/>
    <trip id="veh279" type="veh_passenger" depart="119.90" departLane="best" departSpeed="max" from="22894723#0" to="22894594#2"/>
    <trip id="veh285" type="veh_passenger" depart="122.48" departLane="best" departSpeed="max" from="436693572#0" to="22894594#1"/>
    <trip id="veh286" type="veh_passenger" depart="122.91" departLane="best" departSpeed="max" from="965939908#0" to="22894721#1"/>
    <trip id="veh290" type="veh_passenger" depart="124.63" departLane="best" departSpeed="max" from="436693572#0" to="965376404#0"/>
    <trip id="veh291" type="veh_passenger" depart="125.06" departLane="best" from="460561515#0" to="452245665#3"/>
    <trip id="veh293" type="veh_passenger" depart="125.92" departLane="best" departSpeed="max" from="517282317#0" to="1000624457#1"/>
    <trip id="veh296" type="veh_passenger" depart="127.21" departLane="best" from="965359267" to="22894594#2"/>
    <trip id="veh297" type="veh_passenger" depart="127.64" departLane="best" departSpeed="max" from="965359259" to="461097291"/>
    <trip id="veh299" type="veh_passenger" depart="128.50" departLane="best" departSpeed="max" from="436682108" to="484667608"/>
    <trip id="veh301" type="veh_passenger" depart="129.36" departLane="best" from="436693568#0" to="452636498#3"/>
    <trip id="veh302" type="veh_passenger" depart="129.79" departLane="best" departSpeed="max" from="461097293" to="452245665#2"/>
    <trip id="veh303" type="veh_passenger" depart="130.22" departLane="best" from="965359267" to="965382811#0"/>
    <trip id="veh306" type="veh_passenger" depart="131.51" departLane="best" from="965376412#4" to="38323569#1"/>
    <trip id="veh307" type="veh_passenger" depart="131.94" departLane="best" from="1176284081#2" to="965382811#1"/>
    <trip id="veh309" type="veh_passenger" depart="132.80" departLane="best" departSpeed="max" from="517282317#0" to="165087293#0"/>
    <trip id="veh310" type="veh_passenger" depart="133.23" departLane="best" departSpeed="max" from="436682108" to="1028542371#1"/>
    <trip id="veh311" type="veh_passenger" depart="133.66" departLane="best" departSpeed="max" from="436693572#0" to="38323569#1"/>
    <trip id="veh312" type="veh_passenger" depart="134.09" departLane="best" from="965382833#0" to="452636498#3"/>
    <trip id="veh313" type="veh_passenger" depart="134.52" departLane="best" departSpeed="max" from="-484667608" to="452636498#7"/>
    <trip id="veh314" type="veh_passenger" depart="134.95" departLane="best" from="436682107" to="38323569#1"/>
    <trip id="veh317" type="veh_passenger" depart="136.23" departLane="best" departSpeed="max" from="965359259" to="22894594#2"/>
    <trip id="veh319" type="veh_passenger" depart="137.09" departLane="best" departSpeed="max" from="22894596" to="219035198#1"/>
    <trip id="veh320" type="veh_passenger" depart="137.52" departLane="best" departSpeed="max" from="-20673456" to="965359268#1"/>
    <trip id="veh321" type="veh_passenger" depart="137.95" departLane="best" departSpeed="max" from="22894721#0" to="165087293#1"/>
    <trip id="veh325" type="veh_passenger" depart="139.67" departLane="best" from="219035198#2" to="-965939908#2"/>
    <trip id="veh326" type="veh_passenger" depart="140.10" departLane="best" departSpeed="max" from="965359259" to="436695031#0"/>
    <trip id="veh328" type="veh_passenger" depart="140.96" departLane="best" from="965382833#0" to="965382773"/>
    <trip id="veh329" type="veh_passenger" depart="141.39" departLane="best" departSpeed="max" from="965359259" to="965359271"/>
    <trip id="veh330" type="veh_passenger" depart="141.82" departLane="best" from="965382833#2" to="1000624456"/>
    <trip id="veh331" type="veh_passenger" depart="142.25" departLane="best" from="436693571" to="38323569#1"/>
    <trip id="veh334" type="veh_passenger" depart="143.54" departLane="best" departSpeed="max" from="-483638949#1" to="452245665#3"/>
    <trip id="veh337" type="veh_passenger" depart="144.83" departLane="best" from="461097292#0" to="461097294#0"/>
    <trip id="veh338" type="veh_passenger" depart="145.26" departLane="best" departSpeed="max" from="436682108" to="1000624457#1"/>
    <trip id="veh339" type="veh_passenger" depart="145.69" departLane="best" from="436693564#0" to="-452636498#2"/>
    <trip id="veh340" type="veh_passenger" depart="146.12" departLane="best" departSpeed="max" from="436682108" to="165087293#0"/>
    <trip id="veh341" type="veh_passenger" depart="146.55" departLane="best" from="965382811#0" to="1000624457#0"/>
    <trip id="veh342" type="veh_passenger" depart="146.98" departLane="best" from="965359267" to="1000624457#1"/>
    <trip id="veh345" type="veh_passenger" depart="148.27" departLane="best" departSpeed="max" from="517282317#0" to="965359271"/>
    <trip id="veh351" type="veh_passenger" depart="150.85" departLane="best" from="965359263" to="452245665#3"/>
    <trip id="veh353" type="veh_passenger" depart="151.71" departLane="best" departSpeed="max" from="22894723#0" to="165087293#1"/>
    <trip id="veh354" type="veh_passenger" depart="152.14" departLane="best" departSpeed="max" from="436682108" to="1176284082#0"/>
    <trip id="veh356" type="veh_passenger" depart="153.00" departLane="best" departSpeed="max" from="436682108" to="460561514#1"/>
    <trip id="veh357" type="veh_passenger" depart="153.43" departLane="best" departSpeed="max" from="965359259" to="452245665#0"/>
    <trip id="veh361" type="veh_passenger" depart="155.14" departLane="best" from="436693564#1" to="22894597#0"/>
    <trip id="veh362" type="veh_passenger" depart="155.57" departLane="best" from="436693564#0" to="22894721#1"/>
    <trip id="veh372" type="veh_passenger" depart="159.87" departLane="best" departSpeed="max" from="-452636498#11" to="-452636498#1"/>
    <trip id="veh375" type="veh_passenger" depart="161.16" departLane="best" from="965382811#0" to="1000624457#1"/>
    <trip id="veh377" type="veh_passenger" depart="162.02" departLane="best" departSpeed="max" from="436682108" to="22894723#1"/>
    <trip id="veh382" type="veh_passenger" depart="164.17" departLane="best" from="461097292#1" to="165087293#1"/>
    <trip id="veh384" type="veh_passenger" depart="165.03" departLane="best" from="460561514#1" to="165087293#0"/>
    <trip id="veh389" type="veh_passenger" depart="167.18" departLane="best" departSpeed="max" from="-483638949#1" to="965359270"/>
    <trip id="veh390" type="veh_passenger" depart="167.61" departLane="best" from="965359271" to="452245665#3"/>
    <trip id="veh393" type="veh_passenger" depart="168.90" departLane="best" from="1176284082#0" to="1000624456"/>
    <trip id="veh395" type="veh_passenger" depart="169.76" departLane="best" from="436693572#2" to="165087293#1"/>
    <trip id="veh397" type="veh_passenger" depart="170.62" departLane="best" from="436693564#1" to="436695031#1"/>
    <trip id="veh400" type="veh_passenger" depart="171.90" departLane="best" from="293998818#2" to="452245665#3"/>
    <trip id="veh401" type="veh_passenger" depart="172.33" departLane="best" departSpeed="max" from="965359259" to="452246358#3"/>
    <trip id="veh403" type="veh_passenger" depart="173.19" departLane="best" from="293998818#1" to="452245665#2"/>
    <trip id="veh404" type="veh_passenger" depart="173.62" departLane="best" from="965382833#2" to="452636498#7"/>
    <trip id="veh405" type="veh_passenger" depart="174.05" departLane="best" departSpeed="max" from="436682108" to="484667608"/>
    <trip id="veh412" type="veh_passenger" depart="177.06" departLane="best" departSpeed="max" from="965359259" to="1176284081#2"/>
    <trip id="veh413" type="veh_passenger" depart="177.49" departLane="best" departSpeed="max" from="436682108" to="165087293#1"/>
    <trip id="veh414" type="veh_passenger" depart="177.92" departLane="best" from="965359267" to="461097294#0"/>
    <trip id="veh415" type="veh_passenger" depart="178.35" departLane="best" departSpeed="max" from="965359259" to="165087293#1"/>
    <trip id="veh416" type="veh_passenger" depart="178.78" departLane="best" from="436693564#0" to="38323569#1"/>
    <trip id="veh418" type="veh_passenger" depart="179.64" departLane="best" from="436693564#1" to="22894721#1"/>
    <trip id="veh421" type="veh_passenger" depart="180.93" departLane="best" from="436693568#0" to="22894721#1"/>
    <trip id="veh422" type="veh_passenger" depart="181.36" departLane="best" departSpeed="max" from="436682108" to="436695031#1"/>
    <trip id="veh423" type="veh_passenger" depart="181.79" departLane="best" departSpeed="max" from="965359259" to="1176284082#0"/>
    <trip id="veh427" type="veh_passenger" depart="183.51" departLane="best" departSpeed="max" from="965359259" to="22894597#0"/>
    <trip id="veh428" type="veh_passenger" depart="183.94" departLane="best" from="436693564#0" to="965382811#1"/>
    <trip id="veh433" type="veh_passenger" depart="186.09" departLane="best" departSpeed="max" from="436682108" to="-452636498#2"/>
    <trip id="veh434" type="veh_passenger" depart="186.52" departLane="best" from="1176284081#2" to="22894721#1"/>
    <trip id="veh435" type="veh_passenger" depart="186.95" departLane="best" from="965359267" to="452636498#7"/>
    <trip id="veh436" type="veh_passenger" depart="187.38" departLane="best" from="1176284081#2" to="452636498#7"/>
    <trip id="veh440" type="veh_passenger" depart="189.10" departLane="best" departSpeed="max" from="436682108" to="484667608"/>
    <trip id="veh441" type="veh_passenger" depart="189.53" departLane="best" from="436693568#0" to="1028542371#2"/>
    <trip id="veh449" type="veh_passenger" depart="192.96" departLane="best" departSpeed="max" from="965359259" to="452245665#2"/>
    <trip id="veh450" type="veh_passenger" depart="193.39" departLane="best" departSpeed="max" from="517282317#0" to="452245665#3"/>
    <trip id="veh453" type="veh_passenger" depart="194.68" departLane="best" from="436693568#1" to="452636498#7"/>
    <trip id="veh455" type="veh_passenger" depart="195.54" departLane="best" from="436693568#0" to="22894721#1"/>
    <trip id="veh459" type="veh_passenger" depart="197.26" departLane="best" from="517282317#2" to="165087293#1"/>
    <trip id="veh460" type="veh_passenger" depart="197.69" departLane="best" from="436682107" to="483638949#1"/>
    <trip id="veh461" type="veh_passenger" depart="198.12" departLane="best" from="965376408#1" to="38323569#1"/>
    <trip id="veh463" type="veh_passenger" depart="198.98" departLane="best" departSpeed="max" from="436693572#0" to="965376412#2"/>
    <trip id="veh464" type="veh_passenger" depart="199.41" departLane="best" departSpeed="max" from="517282317#0" to="1000624457#1"/>
    <trip id="veh467" type="veh_passenger" depart="200.70" departLane="best" from="22894740#1" to="452245665#3"/>
    <trip id="veh468" type="veh_passenger" depart="201.13" departLane="best" from="436693564#0" to="452636498#7"/>
    <trip id="veh469" type="veh_passenger" depart="201.56" departLane="best" departSpeed="max" from="965939908#0" to="22894597#1"/>
    <trip id="veh472" type="veh_passenger" depart="202.85" departLane="best" departSpeed="max" from="965359259" to="452636498#3"/>
    <trip id="veh474" type="veh_passenger" depart="203.71" departLane="best" departSpeed="max" from="436682108" to="38323569#1"/>
    <trip id="veh478" type="veh_passenger" depart="205.43" departLane="best" departSpeed="max" from="436682108" to="-452636498#0"/>
    <trip id="veh480" type="veh_passenger" depart="206.29" departLane="best" departSpeed="max" from="22894723#0" to="22894594#2"/>
    <trip id="veh482" type="veh_passenger" depart="207.15" departLane="best" departSpeed="max" from="-484667608" to="452636498#7"/>
    <trip id="veh483" type="veh_passenger" depart="207.58" departLane="best" from="436682105" to="1000624457#0"/>
    <trip id="veh484" type="veh_passenger" depart="208.00" departLane="best" departSpeed="max" from="965359259" to="436695031#0"/>