<?xml version="1.0" encoding="UTF-8"?>

<!-- generated on 2023-11-29 11:36:18.927888 by randomTrips.py v1_18_0+0000-03ecfdea036
<configuration>
    <net-file value="osm.net.xml.gz"/>
    <output-trip-file value="osm.truck.trips.xml"/>
    <route-file value="osm.truck.rou.xml"/>
    <prefix value="truck"/>
    <trip-attributes value="departLane=&quot;best&quot;"/>
    <fringe-start-attributes value="departSpeed=&quot;max&quot;"/>
    <vehicle-class value="truck"/>
    <fringe-factor value="3"/>
    <vclass value="truck"/>
    <via-edge-types value="highway.motorway,highway.motorway_link,highway.trunk_link,highway.primary_link,highway.secondary_link,highway.tertiary_link"/>
    <min-distance value="600.0"/>
    <min-distance.fringe value="10.0"/>
    <remove-loops value="True"/>
    <validate value="True"/>
    <insertion-density value="30.0"/>
</configuration>
-->

<!-- generated on 2023-11-29 11:36:18 by Eclipse SUMO duarouter Version 1.18.0
<configuration xmlns:xsi="http://www.w3.org/2001/XMLSchema-instance" xsi:noNamespaceSchemaLocation="http://sumo.dlr.de/xsd/duarouterConfiguration.xsd">

    <input>
        <net-file value="osm.net.xml.gz"/>
        <route-files value="osm.truck.trips.xml"/>
    </input>

    <output>
        <output-file value="osm.truck.rou.xml"/>
        <alternatives-output value="NUL"/>
    </output>

    <processing>
        <remove-loops value="true"/>
    </processing>

    <time>
        <begin value="0.0"/>
        <end value="3600.0"/>
    </time>

    <report>
        <no-warnings value="true"/>
        <ignore-errors value="true"/>
        <no-step-log value="true"/>
    </report>

</configuration>
-->

<routes xmlns:xsi="http://www.w3.org/2001/XMLSchema-instance" xsi:noNamespaceSchemaLocation="http://sumo.dlr.de/xsd/routes_file.xsd">
    <vType id="truck_truck" vClass="truck"/>
    <vehicle id="truck1" type="truck_truck" depart="4.30" departLane="best" departSpeed="max">
        <route edges="517282317#0 517282317#2 461097292#0 461097292#1 461097291 219035198#0 219035198#1 219035198#2 1000624456 452636498#3 452636498#5 452636498#7"/>
    </vehicle>
    <vehicle id="truck6" type="truck_truck" depart="25.79" departLane="best">
        <route edges="22894723#1 461097291 219035198#0 22894594#0 22894594#1 22894594#2"/>
    </vehicle>
    <vehicle id="truck16" type="truck_truck" depart="68.77" departLane="best" departSpeed="max">
        <route edges="22894596 452636498#2 452636498#3 452636498#5"/>
    </vehicle>
    <vehicle id="truck18" type="truck_truck" depart="77.37" departLane="best">
        <route edges="-22894744#0 965376412#2 965376412#3 965376412#4 965376404#0 965376404#1 965376721#1 293998818#1 293998818#2 965359268#1 965359272#0 965359272#2 965359271 38323569#0 38323569#1"/>
    </vehicle>
    <vehicle id="truck23" type="truck_truck" depart="98.86" departLane="best" departSpeed="max">
        <route edges="22894596 452636498#2 452636498#3 165087293#0 1000624457#1"/>
    </vehicle>
    <vehicle id="truck32" type="truck_truck" depart="137.55" departLane="best">
        <route edges="-452636498#6 -452636498#4 -452636498#2 -452636498#1 22894594#2"/>
    </vehicle>
    <vehicle id="truck35" type="truck_truck" depart="150.44" departLane="best">
        <route edges="-452636498#6 -452636498#4 -452636498#2 -452636498#1 22894594#2"/>
    </vehicle>
    <vehicle id="truck38" type="truck_truck" depart="163.34" departLane="best" departSpeed="max">
        <route edges="22894596 452636498#2 452636498#3 165087293#0 1000624457#1"/>
    </vehicle>
    <vehicle id="truck40" type="truck_truck" depart="171.94" departLane="best">
        <route edges="965359267 965382833#0 965382833#2 436682107 460561514#0 460561514#1 965382812#1 461097294#0 22894597#0 22894597#1 1000624457#0 1000624457#1"/>
    </vehicle>
    <vehicle id="truck46" type="truck_truck" depart="197.73" departLane="best">
        <route edges="965382833#2 436682107 460561514#0 460561514#1 965382812#1 461097294#0 22894597#0 22894597#1 1000624456 452636498#3 452636498#5 452636498#7"/>
    </vehicle>
    <vehicle id="truck48" type="truck_truck" depart="206.32" departLane="best">
        <route edges="460561515#0 965359268#1 965359272#0 965359272#2 965359271 38323569#0 38323569#1"/>
    </vehicle>
    <vehicle id="truck51" type="truck_truck" depart="219.22" departLane="best" departSpeed="max">
        <route edges="965359259 567770353#0 567770353#2 436682105 436693564#0 436693564#1 1176284082#0 22894728#1 22894726#1 484667608"/>
    </vehicle>
    <vehicle id="truck55" type="truck_truck" depart="236.41" departLane="best">
        <route edges="-452636498#4 -452636498#2 -452636498#1 22894594#2"/>
    </vehicle>
    <vehicle id="truck56" type="truck_truck" depart="240.71" departLane="best" departSpeed="max">
        <route edges="-452636498#11 -452636498#6 -452636498#4 -452636498#2 -452636498#1 -452636498#0 22894723#1 461097291 22894726#0 22894726#1 22894726#2 965382812#1 461097294#0 22894597#0"/>
    </vehicle>
    <vehicle id="truck57" type="truck_truck" depart="245.01" departLane="best" departSpeed="max">
        <route edges="22894721#0 -452636498#6 -452636498#4 -452636498#2 -452636498#1 -452636498#0 22894723#1"/>
    </vehicle>
    <vehicle id="truck58" type="truck_truck" depart="249.31" departLane="best" departSpeed="max">
        <route edges="436693572#0 436693572#2 436693571 436693568#0 436693568#1 517282315#1 1176284081#0 1176284081#2 965359263 965359270 965359262#0 965359262#1 965376721#1 1028542371#1 1028542371#2"/>
    </vehicle>
    <vehicle id="truck59" type="truck_truck" depart="253.61" departLane="best">
        <route edges="22894594#1 452636498#1 452636498#2 452636498#3 452636498#5 452636498#7"/>
    </vehicle>
    <vehicle id="truck63" type="truck_truck" depart="270.80" departLane="best">
        <route edges="22894726#2 965382812#1 461097294#0 22894597#0 22894597#1 1000624456 452636498#3 452636498#5 452636498#7"/>
    </vehicle>
    <vehicle id="truck67" type="truck_truck" depart="287.99" departLane="best" departSpeed="max">
        <route edges="22894596 -452636498#1 -452636498#0 -965939908#2"/>
    </vehicle>
    <vehicle id="truck69" type="truck_truck" depart="296.59" departLane="best" departSpeed="max">
        <route edges="965359259 567770353#0 567770353#2 436682105 436693564#0 436693564#1 1176284082#0 517282315#1 1176284081#0 1176284081#2 460561514#0 460561514#1 965382812#1 461097294#0 22894597#0 22894597#1 1000624457#0 1000624457#1"/>
    </vehicle>
    <vehicle id="truck71" type="truck_truck" depart="305.19" departLane="best" departSpeed="max">
        <route edges="22894723#0 452636498#0 452636498#1 452636498#2 452636498#3 452636498#5 452636498#7"/>
    </vehicle>
    <vehicle id="truck76" type="truck_truck" depart="326.68" departLane="best">
        <route edges="452245665#1 452245665#2 22894743#1 22894743#2 22894743#3 22894743#4 965376412#0 965376412#1 965376412#2 965376412#3 965376412#4 965376404#0 965376404#1 965376721#1 293998818#1 293998818#2 965359268#1 965359272#0 965359272#2 965359271 38323569#0 38323569#1"/>
    </vehicle>
    <vehicle id="truck77" type="truck_truck" depart="330.98" departLane="best" departSpeed="max">
        <route edges="965359259 567770353#0 567770353#2 436682105 436693564#0 436693564#1 1176284082#0 517282315#1 1176284081#0 1176284081#2 460561514#0 460561514#1 965382812#1 461097294#0 22894597#0 22894597#1 1000624456 -452636498#2 -452636498#1 -452636498#0 22894723#1 461097291 22894726#0"/>
    </vehicle>
    <vehicle id="truck78" type="truck_truck" depart="335.28" departLane="best">
        <route edges="461097294#0 22894597#0 22894597#1 1000624456 -452636498#2 -452636498#1 22894594#2"/>
    </vehicle>
    <vehicle id="truck79" type="truck_truck" depart="339.57" departLane="best" departSpeed="max">
        <route edges="22894596 452636498#2 452636498#3 165087293#0 1000624457#1"/>
    </vehicle>
    <vehicle id="truck80" type="truck_truck" depart="343.87" departLane="best" departSpeed="max">
        <route edges="22894721#0 -452636498#6 -452636498#4 -452636498#2 -452636498#1 -452636498#0 22894723#1 461097291 219035198#0 219035198#1 219035198#2 1000624457#0"/>
    </vehicle>
    <vehicle id="truck81" type="truck_truck" depart="348.17" departLane="best" departSpeed="max">
        <route edges="436693572#0 436693572#2 436693571 461097292#0 461097292#1 461097291 219035198#0 22894594#0 22894594#1 22894594#2"/>
    </vehicle>
    <vehicle id="truck82" type="truck_truck" depart="352.47" departLane="best">
        <route edges="965382833#2 436682107 436682106 38323569#0 38323569#1"/>
    </vehicle>
    <vehicle id="truck85" type="truck_truck" depart="365.36" departLane="best" departSpeed="max">
        <route edges="965359259 567770353#0 567770353#2 452245665#0 452245665#1 452245665#2 452245665#3"/>
    </vehicle>
    <vehicle id="truck88" type="truck_truck" depart="378.26" departLane="best" departSpeed="max">
        <route edges="965359259 567770353#0 567770353#2 436682105 436693564#0 436693564#1 1176284082#0 452246358#1 452246358#3 436695031#0 436695031#1"/>
    </vehicle>
    <vehicle id="truck90" type="truck_truck" depart="386.86" departLane="best">
        <route edges="461097292#0 461097292#1 461097291 219035198#0 22894594#0 22894594#1 22894594#2"/>
    </vehicle>
    <vehicle id="truck91" type="truck_truck" depart="391.16" departLane="best" departSpeed="max">
        <route edges="436682108 965359267 965382833#0 965382833#2 436682107 460561514#0 460561514#1 965382812#1 461097294#0 22894597#0 22894597#1 1000624456 -452636498#2 -452636498#1"/>
    </vehicle>
    <vehicle id="truck92" type="truck_truck" depart="395.45" departLane="best">
        <route edges="22894726#1 22894726#2 965382812#1 461097294#0 22894597#0 22894597#1 1000624456 452636498#3 452636498#5 452636498#7"/>
    </vehicle>
    <vehicle id="truck94" type="truck_truck" depart="404.05" departLane="best" departSpeed="max">
        <route edges="965359259 567770353#0 567770353#2 436682105 436693564#0 436693564#1 1176284082#0 452246358#1"/>
    </vehicle>
    <vehicle id="truck97" type="truck_truck" depart="416.95" departLane="best" departSpeed="max">
        <route edges="22894721#0 22894721#1"/>
    </vehicle>
    <vehicle id="truck98" type="truck_truck" depart="421.24" departLane="best" departSpeed="max">
        <route edges="436693572#0 436693572#2 436693571 436693568#0 436693568#1 517282315#1 1176284081#0 1176284081#2 436682106 38323569#0 38323569#1"/>
    </vehicle>
    <vehicle id="truck99" type="truck_truck" depart="425.54" departLane="best">
        <route edges="22894726#2 965382812#1 461097294#0 22894597#0 22894597#1 1000624456 452636498#3 452636498#5 452636498#7"/>
    </vehicle>
    <vehicle id="truck100" type="truck_truck" depart="429.84" departLane="best" departSpeed="max">
        <route edges="517282317#0 517282317#2 436693568#0 436693568#1 517282315#1 1176284081#0 1176284081#2 965359263 965359270 965359262#0 965359262#1 22894738#2 483638949#1"/>
    </vehicle>
    <vehicle id="truck106" type="truck_truck" depart="455.63" departLane="best" departSpeed="max">
        <route edges="22894596 -452636498#1 -452636498#0"/>
    </vehicle>
    <vehicle id="truck118" type="truck_truck" depart="507.21" departLane="best" departSpeed="max">
        <route edges="965382857#0 965382857#1 965382857#2 965376412#0 965376412#1 965376412#2 965376412#3 965376412#4 965376404#0 965376404#1 965376721#1 1028542371#1 1028542371#2"/>
    </vehicle>
    <vehicle id="truck128" type="truck_truck" depart="550.20" departLane="best" departSpeed="max">
        <route edges="22894596 452636498#2 452636498#3 165087293#0"/>
    </vehicle>
    <vehicle id="truck129" type="truck_truck" depart="554.49" departLane="best" departSpeed="max">
        <route edges="22894596 -452636498#1 -452636498#0 22894723#1"/>
    </vehicle>
    <vehicle id="truck131" type="truck_truck" depart="563.09" departLane="best">
        <route edges="436693571 436693568#0 436693568#1 517282315#1 1176284081#0 1176284081#2 436682106 38323569#0 38323569#1"/>
    </vehicle>
    <vehicle id="truck133" type="truck_truck" depart="571.69" departLane="best" departSpeed="max">
        <route edges="-452636498#11 -452636498#6 -452636498#4 -452636498#2 -452636498#1 22894594#2"/>
    </vehicle>
    <vehicle id="truck139" type="truck_truck" depart="597.48" departLane="best">
        <route edges="461097292#1 461097291 219035198#0 22894594#0 22894594#1 22894594#2"/>
    </vehicle>
    <vehicle id="truck141" type="truck_truck" depart="606.08" departLane="best" departSpeed="max">
        <route edges="965359259 567770353#0 567770353#2 436682105 436693564#0 436693564#1 1176284082#0 517282315#1 1176284081#0 1176284081#2 460561514#0 460561514#1 965382812#1 461097294#0 22894597#0 22894597#1 1000624457#0 1000624457#1"/>
    </vehicle>
    <vehicle id="truck151" type="truck_truck" depart="649.06" departLane="best">
        <route edges="436693568#0 436693568#1 517282315#1 1176284081#0 1176284081#2 436682106 38323569#0 38323569#1"/>
    </vehicle>
    <vehicle id="truck155" type="truck_truck" depart="666.25" departLane="best" departSpeed="max">
        <route edges="-452636498#11 -452636498#6 -452636498#4 -452636498#2 -452636498#1 -452636498#0 22894723#1 461097291 219035198#0 219035198#1 219035198#2 1000624457#0"/>
    </vehicle>
    <vehicle id="truck158" type="truck_truck" depart="679.15" departLane="best">
        <route edges="965359271 38323569#0 38323569#1"/>
    </vehicle>
    <vehicle id="truck159" type="truck_truck" depart="683.45" departLane="best">
        <route edges="436682107 460561514#0 460561514#1 965382812#1 461097294#0 22894597#0 22894597#1 1000624456 -452636498#2 -452636498#1 22894594#2"/>
    </vehicle>
    <vehicle id="truck160" type="truck_truck" depart="687.75" departLane="best" departSpeed="max">
        <route edges="22894596 -452636498#1 -452636498#0"/>
    </vehicle>
    <vehicle id="truck161" type="truck_truck" depart="692.04" departLane="best" departSpeed="max">
        <route edges="965359259 567770353#0 567770353#2 436682105 436693564#0 436693564#1 1176284082#0 517282315#1 1176284081#0 1176284081#2 460561514#0 460561514#1 965382812#1 461097294#0 22894597#0 22894597#1 1000624456 -452636498#2 -452636498#1 22894594#2"/>
    </vehicle>
    <vehicle id="truck165" type="truck_truck" depart="709.24" departLane="best">
        <route edges="22894743#1 22894743#2 22894743#3 22894743#4 965376412#0 965376412#1 965376412#2 965376412#3 965376412#4 965376404#0 965376404#1 965376721#1 293998818#1 293998818#2 965359268#1 965359272#0 965359272#2 965359271 38323569#0 38323569#1"/>
    </vehicle>
    <vehicle id="truck167" type="truck_truck" depart="717.83" departLane="best">
        <route edges="436682107 460561514#0 460561514#1 965382812#1 461097294#0 22894597#0 22894597#1 1000624456 452636498#3 452636498#5 452636498#7"/>
    </vehicle>
    <vehicle id="truck169" type="truck_truck" depart="726.43" departLane="best" departSpeed="max">
        <route edges="-452636498#11 -452636498#6 -452636498#4 -452636498#2 -452636498#1 -452636498#0 22894723#1 461097291 22894726#0 22894726#1 484667608"/>
    </vehicle>
    <vehicle id="truck170" type="truck_truck" depart="730.73" departLane="best" departSpeed="max">
        <route edges="965359259 567770353#0 567770353#2 436682105 436693564#0 436693564#1 1176284082#0 517282315#1 1176284081#0 1176284081#2 460561514#0 460561514#1 965382812#1 461097294#0 22894597#0 22894597#1 1000624457#0 165087293#1"/>
    </vehicle>
    <vehicle id="truck173" type="truck_truck" depart="743.62" departLane="best" departSpeed="max">
        <route edges="965939908#0 452636498#0 22894594#2"/>
    </vehicle>
    <vehicle id="truck176" type="truck_truck" depart="756.52" departLane="best" departSpeed="max">
        <route edges="-452636498#11 -452636498#6 -452636498#4 -452636498#2 -452636498#1 -452636498#0 22894723#1 461097291 22894726#0 22894726#1 484667608"/>
    </vehicle>
    <vehicle id="truck178" type="truck_truck" depart="765.12" departLane="best" departSpeed="max">
        <route edges="22894596 452636498#2 452636498#3 165087293#0 1000624457#1"/>
    </vehicle>
    <vehicle id="truck180" type="truck_truck" depart="773.71" departLane="best">
        <route edges="452636498#3 452636498#5 452636498#7"/>
    </vehicle>
    <vehicle id="truck183" type="truck_truck" depart="786.61" departLane="best">
        <route edges="436682105 436693564#0 436693564#1 1176284082#0 517282315#1 1176284081#0 1176284081#2 460561514#0 460561514#1 965382812#1 461097294#0 22894597#0 22894597#1 1000624456 452636498#3 452636498#5 452636498#7"/>
    </vehicle>
    <vehicle id="truck188" type="truck_truck" depart="808.10" departLane="best" departSpeed="max">
        <route edges="22894721#0 -452636498#6 -452636498#4 -452636498#2 -452636498#1 -452636498#0 22894723#1 461097291 22894726#0 22894726#1 22894726#2 965382812#1 965382811#0 965382811#1"/>
    </vehicle>
    <vehicle id="truck193" type="truck_truck" depart="829.59" departLane="best">
        <route edges="460561515#0 965359268#1 965359272#0 965359272#2 965359271 38323569#0 38323569#1"/>
    </vehicle>
    <vehicle id="truck194" type="truck_truck" depart="833.89" departLane="best" departSpeed="max">
        <route edges="517282317#0 517282317#2 436693568#0 436693568#1 517282315#1 1176284081#0 1176284081#2 965359263 965359270 965359262#0 965359262#1 22894738#2 483638949#1"/>
    </vehicle>
    <vehicle id="truck196" type="truck_truck" depart="842.49" departLane="best" departSpeed="max">
        <route edges="436682108 965359267 965382833#0 965382833#2 436682107 436682106 38323569#0 38323569#1"/>
    </vehicle>
    <vehicle id="truck202" type="truck_truck" depart="868.28" departLane="best">
        <route edges="1000624456 452636498#3 452636498#5 452636498#7"/>
    </vehicle>
    <vehicle id="truck203" type="truck_truck" depart="872.58" departLane="best" departSpeed="max">
        <route edges="517282317#0 517282317#2 436693568#0 436693568#1 517282315#1 1176284081#0 1176284081#2 965359263 965359270 965359262#0 965359262#1 22894738#2 965382773"/>
    </vehicle>
    <vehicle id="truck204" type="truck_truck" depart="876.88" departLane="best">
        <route edges="460561514#0 460561514#1 965382812#1 461097294#0 22894597#0 22894597#1 1000624456 452636498#3 452636498#5 452636498#7"/>
    </vehicle>
    <vehicle id="truck206" type="truck_truck" depart="885.47" departLane="best" departSpeed="max">
        <route edges="22894721#0 -452636498#6 165087293#0 1000624457#1"/>
    </vehicle>
    <vehicle id="truck208" type="truck_truck" depart="894.07" departLane="best" departSpeed="max">
        <route edges="22894721#0 -452636498#6 -452636498#4 -452636498#2 -452636498#1 -452636498#0 22894723#1 461097291 22894726#0 22894726#1 22894726#2 965382812#1 461097294#0 22894597#0"/>
    </vehicle>
    <vehicle id="truck209" type="truck_truck" depart="898.37" departLane="best" departSpeed="max">
        <route edges="436682108 965359267 965382833#0 965382833#2 436682107 460561514#0 460561514#1 965382812#1 461097294#0 22894597#0 22894597#1 1000624457#0 165087293#1"/>
    </vehicle>
    <vehicle id="truck210" type="truck_truck" depart="902.67" departLane="best" departSpeed="max">
        <route edges="22894596 452636498#2 452636498#3 452636498#5"/>
    </vehicle>
    <vehicle id="truck212" type="truck_truck" depart="911.26" departLane="best">
        <route edges="965376412#2 965376412#3 965376412#4 965376404#0 965376404#1 965376721#1 293998818#1 293998818#2 965359268#1 965359272#0 965359272#2 965359271 38323569#0 38323569#1"/>
    </vehicle>
    <vehicle id="truck213" type="truck_truck" depart="915.56" departLane="best" departSpeed="max">
        <route edges="517282317#0 517282317#2 436693568#0 436693568#1 517282315#1 1176284081#0 1176284081#2 965359263 965359270 965359262#0 965359262#1 965376721#1"/>
    </vehicle>
    <vehicle id="truck217" type="truck_truck" depart="932.75" departLane="best" departSpeed="max">
        <route edges="965359259 567770353#0 567770353#2 436682105 436693564#0 436693564#1 1176284082#0 517282315#1 1176284081#0 1176284081#2 460561514#0 460561514#1 965382812#1 461097294#0 22894597#0 22894597#1 1000624456 452636498#3 165087293#0"/>
    </vehicle>
    <vehicle id="truck218" type="truck_truck" depart="937.05" departLane="best" departSpeed="max">
        <route edges="965359259 567770353#0 567770353#2 436682105 436693564#0 436693564#1 1176284082#0 517282315#1 1176284081#0 1176284081#2 460561514#0 460561514#1 965382812#1 965382811#0"/>
    </vehicle>
    <vehicle id="truck222" type="truck_truck" depart="954.25" departLane="best" departSpeed="max">
        <route edges="965359259 567770353#0 567770353#2 452245665#0 452245665#1 452245665#2 452245665#3"/>
    </vehicle>
    <vehicle id="truck225" type="truck_truck" depart="967.14" departLane="best">
        <route edges="436693568#1 517282315#1 1176284081#0 1176284081#2 436682106 38323569#0 38323569#1"/>
    </vehicle>
    <vehicle id="truck231" type="truck_truck" depart="992.93" departLane="best" departSpeed="max">
        <route edges="22894596 -452636498#1 -452636498#0 22894723#1 461097291 22894726#0 22894726#1 22894726#2"/>
    </vehicle>
    <vehicle id="truck238" type="truck_truck" depart="1023.02" departLane="best">
        <route edges="965382833#2 436682107 460561514#0 460561514#1 965382812#1 461097294#0 22894597#0 22894597#1 1000624456 452636498#3 452636498#5"/>
    </vehicle>
    <vehicle id="truck243" type="truck_truck" depart="1044.51" departLane="best" departSpeed="max">
        <route edges="517282317#0 517282317#2 461097292#0 461097292#1 461097291 219035198#0 219035198#1 219035198#2 1000624457#0 165087293#1"/>
    </vehicle>
    <vehicle id="truck249" type="truck_truck" depart="1070.30" departLane="best" departSpeed="max">
        <route edges="-452636498#11 -452636498#6 -452636498#4 -452636498#2 -452636498#1"/>
    </vehicle>
    <vehicle id="truck254" type="truck_truck" depart="1091.80" departLane="best" departSpeed="max">
        <route edges="965359259 567770353#0 567770353#2 436682105 436693564#0 436693564#1 1176284082#0 517282315#1 1176284081#0 1176284081#2 460561514#0 460561514#1 965382812#1 461097294#0 22894597#0 22894597#1 1000624456"/>
    </vehicle>
    <vehicle id="truck256" type="truck_truck" depart="1100.39" departLane="best" departSpeed="max">
        <route edges="436682108 965359267 965382833#0 965382833#2 436682107 460561514#0 460561514#1 965382812#1 461097294#0 22894597#0 22894597#1 1000624456 452636498#3"/>
    </vehicle>
    <vehicle id="truck270" type="truck_truck" depart="1160.57" departLane="best" departSpeed="max">
        <route edges="-452636498#11 -452636498#6 -452636498#4 -452636498#2 -452636498#1 -452636498#0 22894723#1 461097291 219035198#0 22894594#0"/>
    </vehicle>
    <vehicle id="truck273" type="truck_truck" depart="1173.47" departLane="best" departSpeed="max">
        <route edges="22894723#0 452636498#0 452636498#1 452636498#2 452636498#3 452636498#5 452636498#7"/>
    </vehicle>
    <vehicle id="truck276" type="truck_truck" depart="1186.36" departLane="best" departSpeed="max">
        <route edges="965382857#0 965382857#1 965382857#2 965376412#0 965376412#1 965376412#2 965376412#3 965376412#4 965376404#0 965376404#1 965376721#1 293998818#1 293998818#2 965359268#1 965359272#0 965359272#2 965359271 38323569#0 38323569#1"/>
    </vehicle>
    <vehicle id="truck277" type="truck_truck" depart="1190.66" departLane="best" departSpeed="max">
        <route edges="22894723#0 452636498#0 452636498#1 452636498#2 452636498#3 452636498#5 452636498#7"/>
    </vehicle>
    <vehicle id="truck278" type="truck_truck" depart="1194.96" departLane="best">
        <route edges="965382811#1 219035198#2 1000624456 452636498#3 452636498#5 452636498#7"/>
    </vehicle>
    <vehicle id="truck279" type="truck_truck" depart="1199.26" departLane="best" departSpeed="max">
        <route edges="965939908#0 452636498#0 452636498#1 452636498#2 452636498#3 452636498#5 452636498#7"/>
    </vehicle>
    <vehicle id="truck282" type="truck_truck" depart="1212.15" departLane="best" departSpeed="max">
        <route edges="436682108 965359267 965382833#0 965382833#2 436682107 436682106 38323569#0 38323569#1"/>
    </vehicle>
    <vehicle id="truck285" type="truck_truck" depart="1225.05" departLane="best" departSpeed="max">
        <route edges="-452636498#11 -452636498#6 165087293#0 1000624457#1"/>
    </vehicle>
    <vehicle id="truck290" type="truck_truck" depart="1246.54" departLane="best">
        <route edges="1176284081#2 460561514#0 460561514#1 965382812#1 461097294#0 22894597#0 22894597#1 1000624456 452636498#3 452636498#5 452636498#7"/>
    </vehicle>
    <vehicle id="truck292" type="truck_truck" depart="1255.14" departLane="best" departSpeed="max">
        <route edges="965359259 567770353#0 567770353#2 436682105 436693564#0 436693564#1 1176284082#0 517282315#1 1176284081#0 1176284081#2 460561514#0 460561514#1 965382812#1 461097294#0 22894597#0 22894597#1"/>
    </vehicle>
    <vehicle id="truck299" type="truck_truck" depart="1285.22" departLane="best" departSpeed="max">
        <route edges="965359259 567770353#0 567770353#2 436682105 436693564#0 436693564#1 1176284082#0 517282315#1 1176284081#0 1176284081#2 460561514#0 460561514#1 965382812#1 461097294#0 22894597#0 22894597#1 1000624456 452636498#3 452636498#5 452636498#7"/>
    </vehicle>
    <vehicle id="truck301" type="truck_truck" depart="1293.82" departLane="best">
        <route edges="436693568#1 517282315#1 1176284081#0 1176284081#2 460561514#0 460561514#1 965382812#1 461097294#0 22894597#0 22894597#1 1000624456 -452636498#2 -452636498#1 22894594#2"/>
    </vehicle>
    <vehicle id="truck302" type="truck_truck" depart="1298.12" departLane="best">
        <route edges="22894728#1 22894726#1 22894726#2 965382812#1 461097294#0 22894597#0 22894597#1 1000624456 452636498#3 452636498#5 452636498#7"/>
    </vehicle>
    <vehicle id="truck303" type="truck_truck" depart="1302.42" departLane="best">
        <route edges="965359263 965359270 965359262#0 965359262#1 965376721#1 293998818#1 293998818#2 965359268#1 965359272#0 965359272#2 965359271 38323569#0 38323569#1"/>
    </vehicle>
    <vehicle id="truck305" type="truck_truck" depart="1311.01" departLane="best">
        <route edges="965382833#0 965382833#2 436682107 460561514#0 460561514#1 965382812#1 461097294#0 22894597#0 22894597#1 1000624456 -452636498#2 -452636498#1 22894594#2"/>
    </vehicle>
    <vehicle id="truck307" type="truck_truck" depart="1319.61" departLane="best" departSpeed="max">
        <route edges="22894596 452636498#2"/>
    </vehicle>
    <vehicle id="truck308" type="truck_truck" depart="1323.91" departLane="best" departSpeed="max">
        <route edges="436682108 965359267 965382833#0 965382833#2 436682107 965359263 965359270 965359262#0 965359262#1 965376721#1 1028542371#1 1028542371#2"/>
    </vehicle>
    <vehicle id="truck309" type="truck_truck" depart="1328.21" departLane="best">
        <route edges="22894594#0 22894594#1 452636498#1 452636498#2 452636498#3 452636498#5 452636498#7"/>
    </vehicle>
    <vehicle id="truck314" type="truck_truck" depart="1349.70" departLane="best" departSpeed="max">
        <route edges="965359259 567770353#0 567770353#2 452245665#0 452245665#1"/>
    </vehicle>
    <vehicle id="truck316" type="truck_truck" depart="1358.30" departLane="best" departSpeed="max">
        <route edges="22894721#0 -452636498#6 -452636498#4 -452636498#2 -452636498#1 -452636498#0 -965939908#2"/>
    </vehicle>
    <vehicle id="truck317" type="truck_truck" depart="1362.60" departLane="best" departSpeed="max">
        <route edges="965359259 567770353#0 567770353#2 436682105 436693564#0 436693564#1 1176284082#0 517282315#1 1176284081#0 1176284081#2 460561514#0 460561514#1 965382812#1 461097294#0 22894597#0 22894597#1"/>
    </vehicle>
    <vehicle id="truck320" type="truck_truck" depart="1375.49" departLane="best" departSpeed="max">
        <route edges="965359259 567770353#0 567770353#2 436682105 436693564#0 436693564#1 1176284082#0 517282315#1 1176284081#0 1176284081#2 460561514#0 460561514#1 965382812#1 965382811#0"/>
    </vehicle>
    <vehicle id="truck321" type="truck_truck" depart="1379.79" departLane="best" departSpeed="max">
        <route edges="-452636498#11 -452636498#6 -452636498#4 -452636498#2 -452636498#1 22894594#2"/>
    </vehicle>
    <vehicle id="truck322" type="truck_truck" depart="1384.09" departLane="best">
        <route edges="-452636498#1 22894594#2"/>
    </vehicle>
    <vehicle id="truck327" type="truck_truck" depart="1405.58" departLane="best" departSpeed="max">
        <route edges="22894723#0 22894723#1 461097291 22894726#0 22894726#1 22894726#2 965382812#1 461097294#0"/>
    </vehicle>
    <vehicle id="truck331" type="truck_truck" depart="1422.77" departLane="best" departSpeed="max">
        <route edges="22894721#0 -452636498#6 -452636498#4 -452636498#2 -452636498#1 -452636498#0 -965939908#2"/>
    </vehicle>
    <vehicle id="truck333" type="truck_truck" depart="1431.37" departLane="best">
        <route edges="436682107 460561514#0 460561514#1 965382812#1 461097294#0 22894597#0 22894597#1 1000624456 -452636498#2 -452636498#1 22894594#2"/>
    </vehicle>
    <vehicle id="truck336" type="truck_truck" depart="1444.27" departLane="best" departSpeed="max">
        <route edges="965359259 567770353#0 567770353#2 436682105 436693564#0 436693564#1 1176284082#0 517282315#1 1176284081#0 1176284081#2 460561514#0 460561514#1 965382812#1 965382811#0 965382811#1 219035198#2"/>
    </vehicle>
    <vehicle id="truck339" type="truck_truck" depart="1457.16" departLane="best" departSpeed="max">
        <route edges="22894721#0 -452636498#6 -452636498#4 -452636498#2 -452636498#1 -452636498#0 -965939908#2"/>
    </vehicle>
    <vehicle id="truck340" type="truck_truck" depart="1461.46" departLane="best" departSpeed="max">