<?xml version="1.0" encoding="UTF-8"?>

<!-- generated on 2023-11-29 11:36:19.270557 by randomTrips.py v1_18_0+0000-03ecfdea036
<configuration>
    <net-file value="osm.net.xml.gz"/>
    <output-trip-file value="osm.truck.trips.xml"/>
    <route-file value="osm.truck.rou.xml"/>
    <prefix value="truck"/>
    <trip-attributes value="departLane=&quot;best&quot;"/>
    <fringe-start-attributes value="departSpeed=&quot;max&quot;"/>
    <vehicle-class value="truck"/>
    <fringe-factor value="3"/>
    <vclass value="truck"/>
    <via-edge-types value="highway.motorway,highway.motorway_link,highway.trunk_link,highway.primary_link,highway.secondary_link,highway.tertiary_link"/>
    <min-distance value="600.0"/>
    <min-distance.fringe value="10.0"/>
    <remove-loops value="True"/>
    <validate value="True"/>
    <insertion-density value="30.0"/>
</configuration>
-->

<!-- generated on 2023-11-29 11:36:19 by Eclipse SUMO duarouter Version 1.18.0
<configuration xmlns:xsi="http://www.w3.org/2001/XMLSchema-instance" xsi:noNamespaceSchemaLocation="http://sumo.dlr.de/xsd/duarouterConfiguration.xsd">

    <input>
        <net-file value="osm.net.xml.gz"/>
        <route-files value="osm.truck.trips.xml"/>
    </input>

    <output>
        <output-file value="osm.truck.trips.xml.tmp"/>
        <alternatives-output value="NUL"/>
        <write-trips value="true"/>
    </output>

    <processing>
        <remove-loops value="true"/>
    </processing>

    <time>
        <begin value="0.0"/>
        <end value="3600.0"/>
    </time>

    <report>
        <no-warnings value="true"/>
        <ignore-errors value="true"/>
        <no-step-log value="true"/>
    </report>

</configuration>
-->

<routes xmlns:xsi="http://www.w3.org/2001/XMLSchema-instance" xsi:noNamespaceSchemaLocation="http://sumo.dlr.de/xsd/routes_file.xsd">
    <vType id="truck_truck" vClass="truck"/>
    <trip id="truck1" type="truck_truck" depart="4.30" departLane="best" departSpeed="max" from="517282317#0" to="452636498#7"/>
    <trip id="truck6" type="truck_truck" depart="25.79" departLane="best" from="22894723#1" to="22894594#2"/>
    <trip id="truck16" type="truck_truck" depart="68.77" departLane="best" departSpeed="max" from="22894596" to="452636498#5"/>
    <trip id="truck18" type="truck_truck" depart="77.37" departLane="best" from="-22894744#0" to="38323569#1"/>
    <trip id="truck23" type="truck_truck" depart="98.86" departLane="best" departSpeed="max" from="22894596" to="1000624457#1"/>
    <trip id="truck32" type="truck_truck" depart="137.55" departLane="best" from="-452636498#6" to="22894594#2"/>
    <trip id="truck35" type="truck_truck" depart="150.44" departLane="best" from="-452636498#6" to="22894594#2"/>
    <trip id="truck38" type="truck_truck" depart="163.34" departLane="best" departSpeed="max" from="22894596" to="1000624457#1"/>
    <trip id="truck40" type="truck_truck" depart="171.94" departLane="best" from="965359267" to="1000624457#1"/>
    <trip id="truck46" type="truck_truck" depart="197.73" departLane="best" from="965382833#2" to="452636498#7"/>
    <trip id="truck48" type="truck_truck" depart="206.32" departLane="best" from="460561515#0" to="38323569#1"/>
    <trip id="truck51" type="truck_truck" depart="219.22" departLane="best" departSpeed="max" from="965359259" to="484667608"/>
    <trip id="truck55" type="truck_truck" depart="236.41" departLane="best" from="-452636498#4" to="22894594#2"/>
    <trip id="truck56" type="truck_truck" depart="240.71" departLane="best" departSpeed="max" from="-452636498#11" to="22894597#0"/>
    <trip id="truck57" type="truck_truck" depart="245.01" departLane="best" departSpeed="max" from="22894721#0" to="22894723#1"/>
    <trip id="truck58" type="truck_truck" depart="249.31" departLane="best" departSpeed="max" from="436693572#0" to="1028542371#2"/>
    <trip id="truck59" type="truck_truck" depart="253.61" departLane="best" from="22894594#1" to="452636498#7"/>
    <trip id="truck63" type="truck_truck" depart="270.80" departLane="best" from="22894726#2" to="452636498#7"/>
    <trip id="truck67" type="truck_truck" depart="287.99" departLane="best" departSpeed="max" from="22894596" to="-965939908#2"/>
    <trip id="truck69" type="truck_truck" depart="296.59" departLane="best" departSpeed="max" from="965359259" to="1000624457#1"/>
    <trip id="truck71" type="truck_truck" depart="305.19" departLane="best" departSpeed="max" from="22894723#0" to="452636498#7"/>
    <trip id="truck76" type="truck_truck" depart="326.68" departLane="best" from="452245665#1" to="38323569#1"/>
    <trip id="truck77" type="truck_truck" depart="330.98" departLane="best" departSpeed="max" from="965359259" to="22894726#0"/>
    <trip id="truck78" type="truck_truck" depart="335.28" departLane="best" from="461097294#0" to="22894594#2"/>
    <trip id="truck79" type="truck_truck" depart="339.57" departLane="best" departSpeed="max" from="22894596" to="1000624457#1"/>
    <trip id="truck80" type="truck_truck" depart="343.87" departLane="best" departSpeed="max" from="22894721#0" to="1000624457#0"/>
    <trip id="truck81" type="truck_truck" depart="348.17" departLane="best" departSpeed="max" from="436693572#0" to="22894594#2"/>
    <trip id="truck82" type="truck_truck" depart="352.47" departLane="best" from="965382833#2" to="38323569#1"/>
    <trip id="truck85" type="truck_truck" depart="365.36" departLane="best" departSpeed="max" from="965359259" to="452245665#3"/>
    <trip id="truck88" type="truck_truck" depart="378.26" departLane="best" departSpeed="max" from="965359259" to="436695031#1"/>
    <trip id="truck90" type="truck_truck" depart="386.86" departLane="best" from="461097292#0" to="22894594#2"/>
    <trip id="truck91" type="truck_truck" depart="391.16" departLane="best" departSpeed="max" from="436682108" to="-452636498#1"/>
    <trip id="truck92" type="truck_truck" depart="395.45" departLane="best" from="22894726#1" to="452636498#7"/>
    <trip id="truck94" type="truck_truck" depart="404.05" departLane="best" departSpeed="max" from="965359259" to="452246358#1"/>
    <trip id="truck97" type="truck_truck" depart="416.95" departLane="best" departSpeed="max" from="22894721#0" to="22894721#1"/>
    <trip id="truck98" type="truck_truck" depart="421.24" departLane="best" departSpeed="max" from="436693572#0" to="38323569#1"/>
    <trip id="truck99" type="truck_truck" depart="425.54" departLane="best" from="22894726#2" to="452636498#7"/>
    <trip id="truck100" type="truck_truck" depart="429.84" departLane="best" departSpeed="max" from="517282317#0" to="483638949#1"/>
    <trip id="truck106" type="truck_truck" depart="455.63" departLane="best" departSpeed="max" from="22894596" to="-452636498#0"/>
    <trip id="truck118" type="truck_truck" depart="507.21" departLane="best" departSpeed="max" from="965382857#0" to="1028542371#2"/>
    <trip id="truck128" type="truck_truck" depart="550.20" departLane="best" departSpeed="max" from="22894596" to="165087293#0"/>
    <trip id="truck129" type="truck_truck" depart="554.49" departLane="best" departSpeed="max" from="22894596" to="22894723#1"/>
    <trip id="truck131" type="truck_truck" depart="563.09" departLane="best" from="436693571" to="38323569#1"/>
    <trip id="truck133" type="truck_truck" depart="571.69" departLane="best" departSpeed="max" from="-452636498#11" to="22894594#2"/>
    <trip id="truck139" type="truck_truck" depart="597.48" departLane="best" from="461097292#1" to="22894594#2"/>
    <trip id="truck141" type="truck_truck" depart="606.08" departLane="best" departSpeed="max" from="965359259" to="1000624457#1"/>
    <trip id="truck151" type="truck_truck" depart="649.06" departLane="best" from="436693568#0" to="38323569#1"/>
    <trip id="truck155" type="truck_truck" depart="666.25" departLane="best" departSpeed="max" from="-452636498#11" to="1000624457#0"/>
    <trip id="truck158" type="truck_truck" depart="679.15" departLane="best" from="965359271" to="38323569#1"/>
    <trip id="truck159" type="truck_truck" depart="683.45" departLane="best" from="436682107" to="22894594#2"/>
    <trip id="truck160" type="truck_truck" depart="687.75" departLane="best" departSpeed="max" from="22894596" to="-452636498#0"/>
    <trip id="truck161" type="truck_truck" depart="692.04" departLane="best" departSpeed="max" from="965359259" to="22894594#2"/>
    <trip id="truck165" type="truck_truck" depart="709.24" departLane="best" from="22894743#1" to="38323569#1"/>
    <trip id="truck167" type="truck_truck" depart="717.83" departLane="best" from="436682107" to="452636498#7"/>
    <trip id="truck169" type="truck_truck" depart="726.43" departLane="best" departSpeed="max" from="-452636498#11" to="484667608"/>
    <trip id="truck170" type="truck_truck" depart="730.73" departLane="best" departSpeed="max" from="965359259" to="165087293#1"/>
    <trip id="truck173" type="truck_truck" depart="743.62" departLane="best" departSpeed="max" from="965939908#0" to="22894594#2"/>
    <trip id="truck176" type="truck_truck" depart="756.52" departLane="best" departSpeed="max" from="-452636498#11" to="484667608"/>
    <trip id="truck178" type="truck_truck" depart="765.12" departLane="best" departSpeed="max" from="22894596" to="1000624457#1"/>
    <trip id="truck180" type="truck_truck" depart="773.71" departLane="best" from="452636498#3" to="452636498#7"/>
    <trip id="truck183" type="truck_truck" depart="786.61" departLane="best" from="436682105" to="452636498#7"/>
    <trip id="truck188" type="truck_truck" depart="808.10" departLane="best" departSpeed="max" from="22894721#0" to="965382811#1"/>
    <trip id="truck193" type="truck_truck" depart="829.59" departLane="best" from="460561515#0" to="38323569#1"/>
    <trip id="truck194" type="truck_truck" depart="833.89" departLane="best" departSpeed="max" from="517282317#0" to="483638949#1"/>
    <trip id="truck196" type="truck_truck" depart="842.49" departLane="best" departSpeed="max" from="436682108" to="38323569#1"/>
    <trip id="truck202" type="truck_truck" depart="868.28" departLane="best" from="1000624456" to="452636498#7"/>
    <trip id="truck203" type="truck_truck" depart="872.58" departLane="best" departSpeed="max" from="517282317#0" to="965382773"/>
    <trip id="truck204" type="truck_truck" depart="876.88" departLane="best" from="460561514#0" to="452636498#7"/>
    <trip id="truck206" type="truck_truck" depart="885.47" departLane="best" departSpeed="max" from="22894721#0" to="1000624457#1"/>
    <trip id="truck208" type="truck_truck" depart="894.07" departLane="best" departSpeed="max" from="22894721#0" to="22894597#0"/>
    <trip id="truck209" type="truck_truck" depart="898.37" departLane="best" departSpeed="max" from="436682108" to="165087293#1"/>
    <trip id="truck210" type="truck_truck" depart="902.67" departLane="best" departSpeed="max" from="22894596" to="452636498#5"/>
    <trip id="truck212" type="truck_truck" depart="911.26" departLane="best" from="965376412#2" to="38323569#1"/>
    <trip id="truck213" type="truck_truck" depart="915.56" departLane="best" departSpeed="max" from="517282317#0" to="965376721#1"/>
    <trip id="truck217" type="truck_truck" depart="932.75" departLane="best" departSpeed="max" from="965359259" to="165087293#0"/>
    <trip id="truck218" type="truck_truck" depart="937.05" departLane="best" departSpeed="max" from="965359259" to="965382811#0"/>
    <trip id="truck222" type="truck_truck" depart="954.25" departLane="best" departSpeed="max" from="965359259" to="452245665#3"/>
    <trip id="truck225" type="truck_truck" depart="967.14" departLane="best" from="436693568#1" to="38323569#1"/>
    <trip id="truck231" type="truck_truck" depart="992.93" departLane="best" departSpeed="max" from="22894596" to="22894726#2"/>
    <trip id="truck238" type="truck_truck" depart="1023.02" departLane="best" from="965382833#2" to="452636498#5"/>
    <trip id="truck243" type="truck_truck" depart="1044.51" departLane="best" departSpeed="max" from="517282317#0" to="165087293#1"/>
    <trip id="truck249" type="truck_truck" depart="1070.30" departLane="best" departSpeed="max" from="-452636498#11" to="-452636498#1"/>
    <trip id="truck254" type="truck_truck" depart="1091.80" departLane="best" departSpeed="max" from="965359259" to="1000624456"/>
    <trip id="truck256" type="truck_truck" depart="1100.39" departLane="best" departSpeed="max" from="436682108" to="452636498#3"/>
    <trip id="truck270" type="truck_truck" depart="1160.57" departLane="best" departSpeed="max" from="-452636498#11" to="22894594#0"/>
    <trip id="truck273" type="truck_truck" depart="1173.47" departLane="best" departSpeed="max" from="22894723#0" to="452636498#7"/>
    <trip id="truck276" type="truck_truck" depart="1186.36" departLane="best" departSpeed="max" from="965382857#0" to="38323569#1"/>
    <trip id="truck277" type="truck_truck" depart="1190.66" departLane="best" departSpeed="max" from="22894723#0" to="452636498#7"/>
    <trip id="truck278" type="truck_truck" depart="1194.96" departLane="best" from="965382811#1" to="452636498#7"/>
    <trip id="truck279" type="truck_truck" depart="1199.26" departLane="best" departSpeed="max" from="965939908#0" to="452636498#7"/>
    <trip id="truck282" type="truck_truck" depart="1212.15" departLane="best" departSpeed="max" from="436682108" to="38323569#1"/>
    <trip id="truck285" type="truck_truck" depart="1225.05" departLane="best" departSpeed="max" from="-452636498#11" to="1000624457#1"/>
    <trip id="truck290" type="truck_truck" depart="1246.54" departLane="best" from="1176284081#2" to="452636498#7"/>
    <trip id="truck292" type="truck_truck" depart="1255.14" departLane="best" departSpeed="max" from="965359259" to="22894597#1"/>
    <trip id="truck299" type="truck_truck" depart="1285.22" departLane="best" departSpeed="max" from="965359259" to="452636498#7"/>
    <trip id="truck301" type="truck_truck" depart="1293.82" departLane="best" from="436693568#1" to="22894594#2"/>
    <trip id="truck302" type="truck_truck" depart="1298.12" departLane="best" from="22894728#1" to="452636498#7"/>
    <trip id="truck303" type="truck_truck" depart="1302.42" departLane="best" from="965359263" to="38323569#1"/>
    <trip id="truck305" type="truck_truck" depart="1311.01" departLane="best" from="965382833#0" to="22894594#2"/>
    <trip id="truck307" type="truck_truck" depart="1319.61" departLane="best" departSpeed="max" from="22894596" to="452636498#2"/>
    <trip id="truck308" type="truck_truck" depart="1323.91" departLane="best" departSpeed="max" from="436682108" to="1028542371#2"/>
    <trip id="truck309" type="truck_truck" depart="1328.21" departLane="best" from="22894594#0" to="452636498#7"/>
    <trip id="truck314" type="truck_truck" depart="1349.70" departLane="best" departSpeed="max" from="965359259" to="452245665#1"/>
    <trip id="truck316" type="truck_truck" depart="1358.30" departLane="best" departSpeed="max" from="22894721#0" to="-965939908#2"/>
    <trip id="truck317" type="truck_truck" depart="1362.60" departLane="best" departSpeed="max" from="965359259" to="22894597#1"/>
    <trip id="truck320" type="truck_truck" depart="1375.49" departLane="best" departSpeed="max" from="965359259" to="965382811#0"/>
    <trip id="truck321" type="truck_truck" depart="1379.79" departLane="best" departSpeed="max" from="-452636498#11" to="22894594#2"/>
    <trip id="truck322" type="truck_truck" depart="1384.09" departLane="best" from="-452636498#1" to="22894594#2"/>
    <trip id="truck327" type="truck_truck" depart="1405.58" departLane="best" departSpeed="max" from="22894723#0" to="461097294#0"/>
    <trip id="truck331" type="truck_truck" depart="1422.77" departLane="best" departSpeed="max" from="22894721#0" to="-965939908#2"/>
    <trip id="truck333" type="truck_truck" depart="1431.37" departLane="best" from="436682107" to="22894594#2"/>
    <trip id="truck336" type="truck_truck" depart="1444.27" departLane="best" departSpeed="max" from="965359259" to="219035198#2"/>
    <trip id="truck339" type="truck_truck" depart="1457.16" departLane="best" departSpeed="max" from="22894721#0" to="-965939908#2"/>
    <trip id="truck340" type="truck_truck" depart="1461.46" departLane="best" departSpeed="max" from="965359259" to="22894594#0"/>
    <trip id="truck343" type="truck_truck" depart="1474.35" departLane="best" from="1176284082#0" to="22894594#2"/>
    <trip id="truck353" type="truck_truck" depart="1517.34" departLane="best" departSpeed="max" from="22894723#0" to="452636498#7"/>
    <trip id="truck357" type="truck_truck" depart="1534.53" departLane="best" departSpeed="max" from="22894596" to="-965939908#2"/>
    <trip id="truck361" type="truck_truck" depart="1551.73" departLane="best" from="22894597#1" to="22894594#2"/>
    <trip id="truck362" type="truck_truck" depart="1556.02" departLane="best" departSpeed="max" from="22894596" to="452636498#3"/>
    <trip id="truck364" type="truck_truck" depart="1564.62" departLane="best" departSpeed="max" from="436682108" to="452636498#3"/>
    <trip id="truck366" type="truck_truck" depart="1573.22" departLane="best" from="22894594#0" to="22894594#2"/>
    <trip id="truck369" type="truck_truck" depart="1586.11" departLane="best" departSpeed="max" from="965359259" to="1176284082#0"/>
    <trip id="truck370" type="truck_truck" depart="1590.41" departLane="best" from="22894726#0" to="22894594#2"/>
    <trip id="truck373" type="truck_truck" depart="1603.31" departLane="best" from="452636498#0" to="452636498#7"/>
    <trip id="truck379" type="truck_truck" depart="1629.10" departLane="best" departSpeed="max" from="965359259" to="452636498#7"/>
    <trip id="truck381" type="truck_truck" depart="1637.69" departLane="best" from="460561514#1" to="452636498#7"/>
    <trip id="truck383" type="truck_truck" depart="1646.29" departLane="best" departSpeed="max" from="22894723#0" to="965382812#1"/>
    <trip id="truck388" type="truck_truck" depart="1667.78" departLane="best" from="461097291" to="452636498#7"/>
    <trip id="truck391" type="truck_truck" depart="1680.68" departLane="best" from="1176284081#2" to="452636498#7"/>
    <trip id="truck392" type="truck_truck" depart="1684.98" departLane="best" departSpeed="max" from="22894723#0" to="484667608"/>
    <trip id="truck399" type="truck_truck" depart="1715.06" departLane="best" from="1176284082#0" to="452636498#7"/>
    <trip id="truck400" type="truck_truck" depart="1719.36" departLane="best" departSpeed="max" from="517282317#0" to="1028542371#2"/>
    <trip id="truck402" type="truck_truck" depart="1727.96" departLane="best" from="461097291" to="22894594#2"/>
    <trip id="truck415" type="truck_truck" depart="1783.84" departLane="best" from="461097294#0" to="452636498#7"/>
    <trip id="truck416" type="truck_truck" depart="1788.14" departLane="best" departSpeed="max" from="22894596" to="22894726#2"/>
    <trip id="truck420" type="truck_truck" depart="1805.33" departLane="best" departSpeed="max" from="436682108" to="-452636498#2"/>
    <trip id="truck422" type="truck_truck" depart="1813.93" departLane="best" departSpeed="max" from="965359259" to="22894594#2"/>
    <trip id="truck423" type="truck_truck" depart="1818.23" departLane="best" departSpeed="max" from="965359259" to="22894721#1"/>
    <trip id="truck425" type="truck_truck" depart="1826.82" departLane="best" departSpeed="max" from="965359259" to="1176284081#2"/>
    <trip id="truck426" type="truck_truck" depart="1831.12" departLane="best" departSpeed="max" from="22894721#0" to="22894594#0"/>
    <trip id="truck429" type="truck_truck" depart="1844.02" departLane="best" departSpeed="max" from="22894596" to="484667608"/>
    <trip id="truck432" type="truck_truck" depart="1856.91" departLane="best" departSpeed="max" from="965359259" to="436695031#0"/>
    <trip id="truck434" type="truck_truck" depart="1865.51" departLane="best" from="1176284081#2" to="452636498#7"/>
    <trip id="truck435" type="truck_truck" depart="1869.81" departLane="best" departSpeed="max" from="22894596" to="22894726#0"/>
    <trip id="truck442" type="truck_truck" depart="1899.90" departLane="best" departSpeed="max" from="-452636498#11" to="-452636498#6"/>
    <trip id="truck444" type="truck_truck" depart="1908.49" departLane="best" departSpeed="max" from="965359259" to="1176284081#0"/>
    <trip id="truck450" type="truck_truck" depart="1934.28" departLane="best" departSpeed="max" from="965382857#0" to="1028542371#2"/>
    <trip id="truck453" type="truck_truck" depart="1947.18" departLane="best" departSpeed="max" from="22894721#0" to="-965939908#2"/>
    <trip id="truck456" type="truck_truck" depart="1960.07" departLane="best" from="965376412#2" to="38323569#1"/>
    <trip id="truck457" type="truck_truck" depart="1964.37" departLane="best" departSpeed="max" from="436693572#0" to="22894594#2"/>
    <trip id="truck465" type="truck_truck" depart="1998.76" departLane="best" departSpeed="max" from="-452636498#11" to="-452636498#0"/>
    <trip id="truck466" type="truck_truck" depart="2003.06" departLane="best" from="461097291" to="22894594#2"/>
    <trip id="truck468" type="truck_truck" depart="2011.66" departLane="best" departSpeed="max" from="965359259" to="460561514#0"/>
    <trip id="truck473" type="truck_truck" depart="2033.15" departLane="best" departSpeed="max" from="22894721#0" to="452636498#7"/>
    <trip id="truck474" type="truck_truck" depart="2037.45" departLane="best" departSpeed="max" from="22894596" to="22894721#1"/>
    <trip id="truck480" type="truck_truck" depart="2063.24" departLane="best" departSpeed="max" from="-452636498#11" to="-452636498#2"/>
    <trip id="truck486" type="truck_truck" depart="2089.03" departLane="best" departSpeed="max" from="965382857#0" to="38323569#1"/>
    <trip id="truck489" type="truck_truck" depart="2101.92" departLane="best" departSpeed="max" from="965939908#0" to="452636498#7"/>
    <trip id="truck490" type="truck_truck" depart="2106.22" departLane="best" departSpeed="max" from="22894596" to="1000624456"/>
    <trip id="truck495" type="truck_truck" depart="2127.71" departLane="best" from="965382811#1" to="22894594#2"/>
    <trip id="truck497" type="truck_truck" depart="2136.31" departLane="best" departSpeed="max" from="22894721#0" to="165087293#0"/>
    <trip id="truck498" type="truck_truck" depart="2140.61" departLane="best" departSpeed="max" from="22894721#0" to="219035198#1"/>
    <trip id="truck502" type="truck_truck" depart="2157.80" departLane="best" departSpeed="max" from="517282317#0" to="965376408#0"/>
    <trip id="truck505" type="truck_truck" depart="2170.70" departLane="best" from="460561514#0" to="22894594#2"/>
    <trip id="truck506" type="truck_truck" depart="2174.99" departLane="best" departSpeed="max" from="965359259" to="-965939908#2"/>
    <trip id="truck509" type="truck_truck" depart="2187.89" departLane="best" departSpeed="max" from="436693572#0" to="22894594#2"/>
    <trip id="truck510" type="truck_truck" depart="2192.19" departLane="best" departSpeed="max" from="22894723#0" to="22894726#2"/>
    <trip id="truck515" type="truck_truck" depart="2213.68" departLane="best" departSpeed="max" from="436682108" to="165087293#1"/>
    <trip id="truck516" type="truck_truck" depart="2217.98" departLane="best" departSpeed="max" from="436682108" to="452636498#7"/>
    <trip id="truck517" type="truck_truck" depart="2222.28" departLane="best" departSpeed="max" from="22894596" to="-452636498#0"/>
    <trip id="truck518" type="truck_truck" depart="2226.58" departLane="best" departSpeed="max" from="22894721#0" to="1000624457#1"/>
    <trip id="truck521" type="truck_truck" depart="2239.47" departLane="best" departSpeed="max" from="-452636498#11" to="-452636498#0"/>
    <trip id="truck526" type="truck_truck" depart="2260.96" departLane="best" departSpeed="max" from="22894596" to="461097291"/>
    <trip id="truck527" type="truck_truck" depart="2265.26" departLane="best" departSpeed="max" from="436682108" to="1000624457#0"/>
    <trip id="truck529" type="truck_truck" depart="2273.86" departLane="best" departSpeed="max" from="-452636498#11" to="22894721#1"/>
    <trip id="truck531" type="truck_truck" depart="2282.45" departLane="best" departSpeed="max" from="22894596" to="965382811#1"/>
    <trip id="truck537" type="truck_truck" depart="2308.25" departLane="best" departSpeed="max" from="22894596" to="-965939908#2"/>
    <trip id="truck549" type="truck_truck" depart="2359.83" departLane="best" from="436693571" to="1028542371#2"/>
    <trip id="truck551" type="truck_truck" depart="2368.42" departLane="best" departSpeed="max" from="22894721#0" to="484667608"/>
    <trip id="truck552" type="truck_truck" depart="2372.72" departLane="best" departSpeed="max" from="965359259" to="452245665#3"/>
    <trip id="truck553" type="truck_truck" depart="2377.02" departLane="best" departSpeed="max" from="461097293" to="38323569#1"/>
    <trip id="truck559" type="truck_truck" depart="2402.81" departLane="best" from="965359272#2" to="38323569#1"/>
    <trip id="truck560" type="truck_truck" depart="2407.11" departLane="best" departSpeed="max" from="22894596" to="452636498#7"/>
    <trip id="truck561" type="truck_truck" depart="2411.41" departLane="best" departSpeed="max" from="517282317#0" to="1028542371#1"/>
    <trip id="truck571" type="truck_truck" depart="2454.39" departLane="best" departSpeed="max" from="461097293" to="452245665#3"/>
    <trip id="truck573" type="truck_truck" depart="2462.99" departLane="best" departSpeed="max" from="436682108" to="452636498#7"/>
    <trip id="truck583" type="truck_truck" depart="2505.97" departLane="best" departSpeed="max" from="517282317#0" to="38323569#1"/>
    <trip id="truck588" type="truck_truck" depart="2527.46" departLane="best" departSpeed="max" from="22894596" to="-965939908#2"/>
    <trip id="truck589" type="truck_truck" depart="2531.76" departLane="best" departSpeed="max" from="436682108" to="452636498#7"/>
    <trip id="truck593" type="truck_truck" depart="2548.96" departLane="best" from="-22894744#0" to="38323569#1"/>
    <trip id="truck596" type="truck_truck" depart="2561.85" departLane="best" departSpeed="max" from="22894596" to="452636498#3"/>
    <trip id="truck599" type="truck_truck" depart="2574.75" departLane="best" departSpeed="max" from="-452636498#11" to="1000624457#1"/>
    <trip id="truck604" type="truck_truck" depart="2596.24" departLane="best" departSpeed="max" from="436682108" to="165087293#1"/>
    <trip id="truck605" type="truck_truck" depart="2600.54" departLane="best" departSpeed="max" from="436682108" to="452636498#7"/>
    <trip id="truck606" type="truck_truck" depart="2604.84" departLane="best" from="965359262#1" to="38323569#1"/>
    <trip id="truck609" type="truck_truck" depart="2617.73" departLane="best" from="965359262#1" to="38323569#1"/>
    <trip id="truck610" type="truck_truck" depart="2622.03" departLane="best" from="436693568#1" to="38323569#1"/>
    <trip id="truck611" type="truck_truck" depart="2626.33" departLane="best" departSpeed="max" from="22894721#0" to="-452636498#1"/>
    <trip id="truck615" type="truck_truck" depart="2643.52" departLane="best" departSpeed="max" from="-484667608" to="22894594#2"/>
    <trip id="truck618" type="truck_truck" depart="2656.42" departLane="best" departSpeed="max" from="965359259" to="1000624457#1"/>
    <trip id="truck619" type="truck_truck" depart="2660.71" departLane="best" departSpeed="max" from="22894723#0" to="461097294#0"/>
    <trip id="truck621" type="truck_truck" depart="2669.31" departLane="best" departSpeed="max" from="436682108" to="1028542371#2"/>
    <trip id="truck622" type="truck_truck" depart="2673.61" departLane="best" from="22894726#2" to="22894594#2"/>
    <trip id="truck624" type="truck_truck" depart="2682.21" departLane="best" from="22894726#2" to="452636498#7"/>
    <trip id="truck629" type="truck_truck" depart="2703.70" departLane="best" from="965382812#1" to="22894594#2"/>
    <trip id="truck633" type="truck_truck" depart="2720.89" departLane="best" from="965382833#0" to="452636498#3"/>
    <trip id="truck638" type="truck_truck" depart="2742.38" departLane="best" departSpeed="max" from="517282317#0" to="1028542371#2"/>
    <trip id="truck642" type="truck_truck" depart="2759.58" departLane="best" from="460561515#0" to="38323569#1"/>
    <trip id="truck649" type="truck_truck" depart="2789.67" departLane="best" departSpeed="max" from="436682108" to="165087293#0"/>
    <trip id="truck654" type="truck_truck" depart="2811.16" departLane="best" departSpeed="max" from="22894596" to="22894726#0"/>
    <trip id="truck656" type="truck_truck" depart="2819.76" departLane="best" departSpeed="max" from="965382857#0" to="1028542371#2"/>
    <trip id="truck663" type="truck_truck" depart="2849.84" departLane="best" departSpeed="max" from="965359259" to="219035198#0"/>
    <trip id="truck665" type="truck_truck" depart="2858.44" departLane="best" from="461097292#1" to="22894594#2"/>
    <trip id="truck666" type="truck_truck" depart="2862.74" departLane="best" departSpeed="max" from="-452636498#11" to="22894726#2"/>
    <trip id="truck671" type="truck_truck" depart="2884.23" departLane="best" departSpeed="max" from="22894723#0" to="965382812#1"/>
    <trip id="truck672" type="truck_truck" depart="2888.53" departLane="best" departSpeed="max" from="436693572#0" to="1028542371#2"/>
    <trip id="truck678" type="truck_truck" depart="2914.32" departLane="best" departSpeed="max" from="436682108" to="22894597#0"/>
    <trip id="truck681" type="truck_truck" depart="2927.22" departLane="best" departSpeed="max" from="22894721#0" to="-452636498#0"/>
    <trip id="truck685" type="truck_truck" depart="2944.41" departLane="best" departSpeed="max" from="-452636498#11" to="965382811#1"/>
    <trip id="truck686" type="truck_truck" depart="2948.71" departLane="best" departSpeed="max" from="965359259" to="1000624456"/>
    <trip id="truck691" type="truck_truck" depart="2970.20" departLane="best" departSpeed="max" from="-452636498#11" to="22894723#1"/>