<?xml version="1.0" encoding="UTF-8"?>

<!-- generated on 2023-11-29 11:36:15.612734 by randomTrips.py v1_18_0+0000-03ecfdea036
<configuration>
    <net-file value="osm.net.xml.gz"/>
    <output-trip-file value="osm.passenger.trips.xml"/>
    <route-file value="osm.passenger.rou.xml"/>
    <prefix value="veh"/>
    <trip-attributes value="departLane=&quot;best&quot;"/>
    <fringe-start-attributes value="departSpeed=&quot;max&quot;"/>
    <vehicle-class value="passenger"/>
    <lanes value="True"/>
    <fringe-factor value="4"/>
    <allow-fringe.min-length value="1000.0"/>
    <via-edge-types value="highway.motorway,highway.motorway_link,highway.trunk_link,highway.primary_link,highway.secondary_link,highway.tertiary_link"/>
    <min-distance value="300.0"/>
    <min-distance.fringe value="10.0"/>
    <remove-loops value="True"/>
    <validate value="True"/>
    <insertion-density value="300.0"/>
</configuration>
-->

<!-- generated on 2023-11-29 11:36:14 by Eclipse SUMO duarouter Version 1.18.0
<configuration xmlns:xsi="http://www.w3.org/2001/XMLSchema-instance" xsi:noNamespaceSchemaLocation="http://sumo.dlr.de/xsd/duarouterConfiguration.xsd">

    <input>
        <net-file value="osm.net.xml.gz"/>
        <route-files value="osm.passenger.trips.xml"/>
    </input>

    <output>
        <output-file value="osm.passenger.trips.xml.tmp"/>
        <alternatives-output value="NUL"/>
        <write-trips value="true"/>
    </output>

    <processing>
        <remove-loops value="true"/>
    </processing>

    <time>
        <begin value="0.0"/>
        <end value="3600.0"/>
    </time>

    <report>
        <no-warnings value="true"/>
        <ignore-errors value="true"/>
        <no-step-log value="true"/>
    </report>

</configuration>
-->

<routes xmlns:xsi="http://www.w3.org/2001/XMLSchema-instance" xsi:noNamespaceSchemaLocation="http://sumo.dlr.de/xsd/routes_file.xsd">
    <vType id="veh_passenger" vClass="passenger"/>
    <trip id="veh1" type="veh_passenger" depart="0.43" departLane="best" departSpeed="max" from="517282317#0" to="452636498#5"/>
    <trip id="veh3" type="veh_passenger" depart="1.29" departLane="best" departSpeed="max" from="436682108" to="452636498#3"/>
    <trip id="veh7" type="veh_passenger" depart="3.01" departLane="best" departSpeed="max" from="965359259" to="22894744#1"/>
    <trip id="veh8" type="veh_passenger" depart="3.44" departLane="best" departSpeed="max" from="965359259" to="452636498#7"/>
    <trip id="veh9" type="veh_passenger" depart="3.87" departLane="best" from="436682105" to="165087293#0"/>
    <trip id="veh11" type="veh_passenger" depart="4.73" departLane="best" from="965359272#2" to="452245665#3"/>
    <trip id="veh12" type="veh_passenger" depart="5.16" departLane="best" departSpeed="max" from="965359259" to="460561514#1"/>
    <trip id="veh13" type="veh_passenger" depart="5.59" departLane="best" departSpeed="max" from="436682108" to="436695031#1"/>
    <trip id="veh14" type="veh_passenger" depart="6.02" departLane="best" departSpeed="max" from="22894721#0" to="22894721#1"/>
    <trip id="veh17" type="veh_passenger" depart="7.31" departLane="best" from="460561515#0" to="22894744#1"/>
    <trip id="veh18" type="veh_passenger" depart="7.74" departLane="best" departSpeed="max" from="436682108" to="219035198#0"/>
    <trip id="veh23" type="veh_passenger" depart="9.89" departLane="best" departSpeed="max" from="22894721#0" to="-452636498#4"/>
    <trip id="veh25" type="veh_passenger" depart="10.75" departLane="best" departSpeed="max" from="22894596" to="965382811#0"/>
    <trip id="veh27" type="veh_passenger" depart="11.61" departLane="best" departSpeed="max" from="22894723#0" to="22894594#2"/>
    <trip id="veh30" type="veh_passenger" depart="12.90" departLane="best" departSpeed="max" from="436682108" to="219035198#1"/>
    <trip id="veh31" type="veh_passenger" depart="13.33" departLane="best" departSpeed="max" from="-484667608" to="-965939908#2"/>
    <trip id="veh33" type="veh_passenger" depart="14.18" departLane="best" departSpeed="max" from="965359259" to="436682106"/>
    <trip id="veh35" type="veh_passenger" depart="15.04" departLane="best" departSpeed="max" from="965382857#0" to="965359268#1"/>
    <trip id="veh40" type="veh_passenger" depart="17.19" departLane="best" from="436693568#0" to="965382812#1"/>
    <trip id="veh42" type="veh_passenger" depart="18.05" departLane="best" departSpeed="max" from="436693572#0" to="165087293#1"/>
    <trip id="veh44" type="veh_passenger" depart="18.91" departLane="best" from="460561514#0" to="165087293#0"/>
    <trip id="veh45" type="veh_passenger" depart="19.34" departLane="best" departSpeed="max" from="965359259" to="436695031#1"/>
    <trip id="veh46" type="veh_passenger" depart="19.77" departLane="best" departSpeed="max" from="965359259" to="436695031#1"/>
    <trip id="veh52" type="veh_passenger" depart="22.35" departLane="best" departSpeed="max" from="965359259" to="1176284081#2"/>
    <trip id="veh54" type="veh_passenger" depart="23.21" departLane="best" departSpeed="max" from="436682108" to="219035198#0"/>
    <trip id="veh55" type="veh_passenger" depart="23.64" departLane="best" departSpeed="max" from="22894596" to="22894723#1"/>
    <trip id="veh56" type="veh_passenger" depart="24.07" departLane="best" from="436693564#1" to="436695031#1"/>
    <trip id="veh57" type="veh_passenger" depart="24.50" departLane="best" from="1176284081#0" to="219035198#2"/>
    <trip id="veh58" type="veh_passenger" depart="24.93" departLane="best" departSpeed="max" from="22894721#0" to="219035198#1"/>
    <trip id="veh62" type="veh_passenger" depart="26.65" departLane="best" departSpeed="max" from="22894721#0" to="-452636498#4"/>
    <trip id="veh64" type="veh_passenger" depart="27.51" departLane="best" from="436693568#1" to="483638949#1"/>
    <trip id="veh65" type="veh_passenger" depart="27.94" departLane="best" departSpeed="max" from="965359259" to="165087293#1"/>
    <trip id="veh67" type="veh_passenger" depart="28.80" departLane="best" departSpeed="max" from="517282317#0" to="452636498#3"/>
    <trip id="veh68" type="veh_passenger" depart="29.23" departLane="best" from="965382857#1" to="1028542371#1"/>
    <trip id="veh71" type="veh_passenger" depart="30.52" departLane="best" departSpeed="max" from="436682108" to="22894597#1"/>
    <trip id="veh76" type="veh_passenger" depart="32.67" departLane="best" departSpeed="max" from="436682108" to="1000624456"/>
    <trip id="veh79" type="veh_passenger" depart="33.96" departLane="best" departSpeed="max" from="436693572#0" to="965359268#1"/>
    <trip id="veh91" type="veh_passenger" depart="39.12" departLane="best" from="-452636498#6" to="219035198#0"/>
    <trip id="veh93" type="veh_passenger" depart="39.98" departLane="best" departSpeed="max" from="436682108" to="165087293#1"/>
    <trip id="veh94" type="veh_passenger" depart="40.41" departLane="best" from="965359267" to="452636498#7"/>
    <trip id="veh101" type="veh_passenger" depart="43.41" departLane="best" departSpeed="max" from="436693572#0" to="965376404#0"/>
    <trip id="veh103" type="veh_passenger" depart="44.27" departLane="best" departSpeed="max" from="436682108" to="22894597#1"/>
    <trip id="veh106" type="veh_passenger" depart="45.56" departLane="best" from="436693564#0" to="-452636498#0"/>
    <trip id="veh109" type="veh_passenger" depart="46.85" departLane="best" departSpeed="max" from="965359259" to="965359268#1"/>
    <trip id="veh112" type="veh_passenger" depart="48.14" departLane="best" departSpeed="max" from="965359259" to="965359272#0"/>
    <trip id="veh115" type="veh_passenger" depart="49.43" departLane="best" departSpeed="max" from="965359259" to="965359270"/>
    <trip id="veh117" type="veh_passenger" depart="50.29" departLane="best" departSpeed="max" from="965359259" to="1028542371#2"/>
    <trip id="veh119" type="veh_passenger" depart="51.15" departLane="best" from="436693568#0" to="22894721#1"/>
    <trip id="veh120" type="veh_passenger" depart="51.58" departLane="best" departSpeed="max" from="965359259" to="219035198#2"/>
    <trip id="veh121" type="veh_passenger" depart="52.01" departLane="best" from="452636498#0" to="165087293#1"/>
    <trip id="veh122" type="veh_passenger" depart="52.44" departLane="best" from="965382833#2" to="22894597#1"/>
    <trip id="veh126" type="veh_passenger" depart="54.16" departLane="best" from="965382833#2" to="22894594#2"/>
    <trip id="veh129" type="veh_passenger" depart="55.45" departLane="best" departSpeed="max" from="517282317#0" to="452636498#3"/>
    <trip id="veh130" type="veh_passenger" depart="55.88" departLane="best" from="436682107" to="1000624457#0"/>
    <trip id="veh131" type="veh_passenger" depart="56.31" departLane="best" departSpeed="max" from="517282317#0" to="22894721#1"/>
    <trip id="veh132" type="veh_passenger" depart="56.74" departLane="best" from="22894740#2" to="38323569#1"/>
    <trip id="veh133" type="veh_passenger" depart="57.17" departLane="best" departSpeed="max" from="436682108" to="22894721#1"/>
    <trip id="veh134" type="veh_passenger" depart="57.60" departLane="best" from="965382833#0" to="452636498#5"/>
    <trip id="veh137" type="veh_passenger" depart="58.89" departLane="best" departSpeed="max" from="965359259" to="165087293#1"/>
    <trip id="veh140" type="veh_passenger" depart="60.18" departLane="best" departSpeed="max" from="22894596" to="452636498#2"/>
    <trip id="veh143" type="veh_passenger" depart="61.47" departLane="best" departSpeed="max" from="22894596" to="452636498#7"/>
    <trip id="veh144" type="veh_passenger" depart="61.90" departLane="best" departSpeed="max" from="436693572#0" to="22894594#2"/>
    <trip id="veh146" type="veh_passenger" depart="62.76" departLane="best" departSpeed="max" from="517282317#0" to="461097294#0"/>
    <trip id="veh150" type="veh_passenger" depart="64.48" departLane="best" from="965359267" to="436695031#1"/>
    <trip id="veh152" type="veh_passenger" depart="65.34" departLane="best" from="436693571" to="22894594#2"/>
    <trip id="veh154" type="veh_passenger" depart="66.20" departLane="best" departSpeed="max" from="965359259" to="436695031#1"/>
    <trip id="veh155" type="veh_passenger" depart="66.63" departLane="best" from="460561514#1" to="22894597#1"/>
    <trip id="veh157" type="veh_passenger" depart="67.49" departLane="best" departSpeed="max" from="22894723#0" to="22894726#2"/>
    <trip id="veh158" type="veh_passenger" depart="67.91" departLane="best" departSpeed="max" from="22894721#0" to="452636498#7"/>
    <trip id="veh159" type="veh_passenger" depart="68.34" departLane="best" from="517282315#1" to="1000624456"/>
    <trip id="veh160" type="veh_passenger" depart="68.77" departLane="best" departSpeed="max" from="436682108" to="436695031#1"/>
    <trip id="veh161" type="veh_passenger" depart="69.20" departLane="best" departSpeed="max" from="436682108" to="965376404#0"/>
    <trip id="veh162" type="veh_passenger" depart="69.63" departLane="best" from="452636498#1" to="452636498#7"/>
    <trip id="veh163" type="veh_passenger" depart="70.06" departLane="best" departSpeed="max" from="436682108" to="461097291"/>
    <trip id="veh164" type="veh_passenger" depart="70.49" departLane="best" from="22894597#0" to="219035198#1"/>
    <trip id="veh165" type="veh_passenger" depart="70.92" departLane="best" from="436693564#0" to="452636498#3"/>
    <trip id="veh167" type="veh_passenger" depart="71.78" departLane="best" departSpeed="max" from="436682108" to="165087293#1"/>
    <trip id="veh168" type="veh_passenger" depart="72.21" departLane="best" from="460561514#1" to="-452636498#2"/>
    <trip id="veh171" type="veh_passenger" depart="73.50" departLane="best" from="517282317#2" to="38323569#1"/>
    <trip id="veh172" type="veh_passenger" depart="73.93" departLane="best" departSpeed="max" from="517282317#0" to="965359263"/>
    <trip id="veh173" type="veh_passenger" depart="74.36" departLane="best" departSpeed="max" from="22894723#0" to="1000624457#1"/>
    <trip id="veh179" type="veh_passenger" depart="76.94" departLane="best" from="1176284081#0" to="452636498#3"/>
    <trip id="veh181" type="veh_passenger" depart="77.80" departLane="best" departSpeed="max" from="517282317#0" to="1176284081#0"/>
    <trip id="veh183" type="veh_passenger" depart="78.66" departLane="best" from="965382833#2" to="38323569#1"/>
    <trip id="veh184" type="veh_passenger" depart="79.09" departLane="best" from="517282315#1" to="1000624457#1"/>
    <trip id="veh185" type="veh_passenger" depart="79.52" departLane="best" departSpeed="max" from="461097293" to="452245665#3"/>
    <trip id="veh187" type="veh_passenger" depart="80.38" departLane="best" from="965359271" to="452245665#3"/>
    <trip id="veh188" type="veh_passenger" depart="80.81" departLane="best" departSpeed="max" from="965359259" to="452245665#2"/>
    <trip id="veh189" type="veh_passenger" depart="81.24" departLane="best" from="436693572#2" to="22894740#2"/>
    <trip id="veh193" type="veh_passenger" depart="82.96" departLane="best" from="965359267" to="1000624457#1"/>
    <trip id="veh195" type="veh_passenger" depart="83.82" departLane="best" from="436693568#1" to="452245665#3"/>
    <trip id="veh196" type="veh_passenger" depart="84.25" departLane="best" departSpeed="max" from="436682108" to="-452636498#2"/>
    <trip id="veh198" type="veh_passenger" depart="85.11" departLane="best" departSpeed="max" from="22894596" to="484667608"/>
    <trip id="veh206" type="veh_passenger" depart="88.55" departLane="best" departSpeed="max" from="436693572#0" to="460561514#1"/>
    <trip id="veh209" type="veh_passenger" depart="89.84" departLane="best" departSpeed="max" from="22894596" to="219035198#2"/>
    <trip id="veh211" type="veh_passenger" depart="90.70" departLane="best" from="965359267" to="38323569#1"/>
    <trip id="veh213" type="veh_passenger" depart="91.56" departLane="best" departSpeed="max" from="-452636498#11" to="165087293#0"/>
    <trip id="veh216" type="veh_passenger" depart="92.85" departLane="best" departSpeed="max" from="965359259" to="452245665#3"/>
    <trip id="veh217" type="veh_passenger" depart="93.28" departLane="best" departSpeed="max" from="965359259" to="219035198#2"/>
    <trip id="veh218" type="veh_passenger" depart="93.71" departLane="best" departSpeed="max" from="965939908#0" to="22894721#1"/>
    <trip id="veh220" type="veh_passenger" depart="94.56" departLane="best" departSpeed="max" from="22894596" to="219035198#0"/>
    <trip id="veh223" type="veh_passenger" depart="95.85" departLane="best" departSpeed="max" from="22894721#0" to="452636498#7"/>
    <trip id="veh224" type="veh_passenger" depart="96.28" departLane="best" departSpeed="max" from="461097293" to="965376412#2"/>
    <trip id="veh225" type="veh_passenger" depart="96.71" departLane="best" departSpeed="max" from="965359259" to="452245665#3"/>
    <trip id="veh226" type="veh_passenger" depart="97.14" departLane="best" departSpeed="max" from="436682108" to="436695031#1"/>
    <trip id="veh228" type="veh_passenger" depart="98.00" departLane="best" from="965359267" to="1000624457#1"/>
    <trip id="veh229" type="veh_passenger" depart="98.43" departLane="best" departSpeed="max" from="517282317#0" to="452245665#0"/>
    <trip id="veh231" type="veh_passenger" depart="99.29" departLane="best" departSpeed="max" from="436693572#0" to="1000624457#1"/>
    <trip id="veh236" type="veh_passenger" depart="101.44" departLane="best" departSpeed="max" from="436693572#0" to="1000624457#1"/>
    <trip id="veh239" type="veh_passenger" depart="102.73" departLane="best" departSpeed="max" from="436682108" to="436695031#1"/>
    <trip id="veh241" type="veh_passenger" depart="103.59" departLane="best" from="517282317#2" to="452245665#3"/>
    <trip id="veh243" type="veh_passenger" depart="104.45" departLane="best" from="436693564#1" to="452636498#7"/>
    <trip id="veh244" type="veh_passenger" depart="104.88" departLane="best" from="460561514#0" to="-452636498#0"/>
    <trip id="veh250" type="veh_passenger" depart="107.46" departLane="best" from="452245665#2" to="38323569#1"/>
    <trip id="veh252" type="veh_passenger" depart="108.32" departLane="best" from="22894723#1" to="484667608"/>
    <trip id="veh253" type="veh_passenger" depart="108.75" departLane="best" departSpeed="max" from="436682108" to="965376721#1"/>
    <trip id="veh254" type="veh_passenger" depart="109.18" departLane="best" from="22894726#0" to="22894721#1"/>
    <trip id="veh256" type="veh_passenger" depart="110.04" departLane="best" departSpeed="max" from="436693572#0" to="165087293#0"/>
    <trip id="veh258" type="veh_passenger" depart="110.90" departLane="best" from="22894594#1" to="452636498#7"/>
    <trip id="veh259" type="veh_passenger" depart="111.33" departLane="best" departSpeed="max" from="965359259" to="965382773"/>
    <trip id="veh260" type="veh_passenger" depart="111.76" departLane="best" departSpeed="max" from="517282317#0" to="452636498#7"/>
    <trip id="veh261" type="veh_passenger" depart="112.19" departLane="best" from="965359262#0" to="38323569#1"/>
    <trip id="veh266" type="veh_passenger" depart="114.34" departLane="best" departSpeed="max" from="517282317#0" to="38323569#1"/>
    <trip id="veh267" type="veh_passenger" depart="114.77" departLane="best" from="461097292#1" to="165087293#0"/>
    <trip id="veh268" type="veh_passenger" depart="115.20" departLane="best" from="436682105" to="452636498#7"/>
    <trip id="veh269" type="veh_passenger" depart="115.63" departLane="best" departSpeed="max" from="436682108" to="22894726#1"/>
    <trip id="veh274" type="veh_passenger" depart="117.78" departLane="best" departSpeed="max" from="-452636498#11" to="484667608"/>
    <trip id="veh276" type="veh_passenger" depart="118.64" departLane="best" from="1176284082#0" to="436695031#1"/>
    <trip id="veh277" type="veh_passenger" depart="119.07" departLane="best" from="965359272#0" to="452245665#3"/>
    <trip id="veh279" type="veh_passenger" depart="119.93" departLane="best" departSpeed="max" from="22894723#0" to="22894594#2"/>
    <trip id="veh285" type="veh_passenger" depart="122.50" departLane="best" departSpeed="max" from="436693572#0" to="22894594#1"/>
    <trip id="veh286" type="veh_passenger" depart="122.93" departLane="best" departSpeed="max" from="965939908#0" to="22894721#1"/>
    <trip id="veh290" type="veh_passenger" depart="124.65" departLane="best" departSpeed="max" from="436693572#0" to="965376404#0"/>
    <trip id="veh291" type="veh_passenger" depart="125.08" departLane="best" from="460561515#0" to="452245665#3"/>
    <trip id="veh293" type="veh_passenger" depart="125.94" departLane="best" departSpeed="max" from="517282317#0" to="1000624457#1"/>
    <trip id="veh296" type="veh_passenger" depart="127.23" departLane="best" from="965359267" to="22894594#2"/>
    <trip id="veh297" type="veh_passenger" depart="127.66" departLane="best" departSpeed="max" from="965359259" to="461097291"/>
    <trip id="veh299" type="veh_passenger" depart="128.52" departLane="best" departSpeed="max" from="436682108" to="484667608"/>
    <trip id="veh301" type="veh_passenger" depart="129.38" departLane="best" from="436693568#0" to="452636498#3"/>
    <trip id="veh302" type="veh_passenger" depart="129.81" departLane="best" departSpeed="max" from="461097293" to="452245665#2"/>
    <trip id="veh303" type="veh_passenger" depart="130.24" departLane="best" from="965359267" to="965382811#0"/>
    <trip id="veh306" type="veh_passenger" depart="131.53" departLane="best" from="965376412#4" to="38323569#1"/>
    <trip id="veh307" type="veh_passenger" depart="131.96" departLane="best" from="1176284081#2" to="965382811#1"/>
    <trip id="veh309" type="veh_passenger" depart="132.82" departLane="best" departSpeed="max" from="517282317#0" to="165087293#0"/>
    <trip id="veh310" type="veh_passenger" depart="133.25" departLane="best" departSpeed="max" from="436682108" to="1028542371#1"/>
    <trip id="veh311" type="veh_passenger" depart="133.68" departLane="best" departSpeed="max" from="436693572#0" to="38323569#1"/>
    <trip id="veh312" type="veh_passenger" depart="134.11" departLane="best" from="965382833#0" to="452636498#3"/>
    <trip id="veh313" type="veh_passenger" depart="134.54" departLane="best" departSpeed="max" from="-484667608" to="452636498#7"/>
    <trip id="veh314" type="veh_passenger" depart="134.97" departLane="best" from="436682107" to="38323569#1"/>
    <trip id="veh317" type="veh_passenger" depart="136.26" departLane="best" departSpeed="max" from="965359259" to="22894594#2"/>
    <trip id="veh319" type="veh_passenger" depart="137.12" departLane="best" departSpeed="max" from="22894596" to="219035198#1"/>
    <trip id="veh320" type="veh_passenger" depart="137.55" departLane="best" departSpeed="max" from="-20673456" to="965359268#1"/>
    <trip id="veh321" type="veh_passenger" depart="137.98" departLane="best" departSpeed="max" from="22894721#0" to="165087293#1"/>
    <trip id="veh325" type="veh_passenger" depart="139.70" departLane="best" from="219035198#2" to="-965939908#2"/>
    <trip id="veh326" type="veh_passenger" depart="140.13" departLane="best" departSpeed="max" from="965359259" to="436695031#0"/>
    <trip id="veh328" type="veh_passenger" depart="140.99" departLane="best" from="965382833#0" to="965382773"/>
    <trip id="veh329" type="veh_passenger" depart="141.42" departLane="best" departSpeed="max" from="965359259" to="965359271"/>
    <trip id="veh330" type="veh_passenger" depart="141.85" departLane="best" from="965382833#2" to="1000624456"/>
    <trip id="veh331" type="veh_passenger" depart="142.28" departLane="best" from="436693571" to="38323569#1"/>
    <trip id="veh334" type="veh_passenger" depart="143.57" departLane="best" departSpeed="max" from="-483638949#1" to="452245665#3"/>
    <trip id="veh337" type="veh_passenger" depart="144.86" departLane="best" from="461097292#0" to="461097294#0"/>
    <trip id="veh338" type="veh_passenger" depart="145.29" departLane="best" departSpeed="max" from="436682108" to="1000624457#1"/>
    <trip id="veh339" type="veh_passenger" depart="145.72" departLane="best" from="436693564#0" to="-452636498#2"/>
    <trip id="veh340" type="veh_passenger" depart="146.15" departLane="best" departSpeed="max" from="436682108" to="165087293#0"/>
    <trip id="veh341" type="veh_passenger" depart="146.58" departLane="best" from="965382811#0" to="1000624457#0"/>
    <trip id="veh342" type="veh_passenger" depart="147.01" departLane="best" from="965359267" to="1000624457#1"/>
    <trip id="veh345" type="veh_passenger" depart="148.30" departLane="best" departSpeed="max" from="517282317#0" to="965359271"/>
    <trip id="veh351" type="veh_passenger" depart="150.87" departLane="best" from="965359263" to="452245665#3"/>
    <trip id="veh353" type="veh_passenger" depart="151.73" departLane="best" departSpeed="max" from="22894723#0" to="165087293#1"/>
    <trip id="veh354" type="veh_passenger" depart="152.16" departLane="best" departSpeed="max" from="436682108" to="1176284082#0"/>
    <trip id="veh356" type="veh_passenger" depart="153.02" departLane="best" departSpeed="max" from="436682108" to="460561514#1"/>
    <trip id="veh357" type="veh_passenger" depart="153.45" departLane="best" departSpeed="max" from="965359259" to="452245665#0"/>
    <trip id="veh361" type="veh_passenger" depart="155.17" departLane="best" from="436693564#1" to="22894597#0"/>
    <trip id="veh362" type="veh_passenger" depart="155.60" departLane="best" from="436693564#0" to="22894721#1"/>
    <trip id="veh372" type="veh_passenger" depart="159.90" departLane="best" departSpeed="max" from="-452636498#11" to="-452636498#1"/>
    <trip id="veh375" type="veh_passenger" depart="161.19" departLane="best" from="965382811#0" to="1000624457#1"/>
    <trip id="veh377" type="veh_passenger" depart="162.05" departLane="best" departSpeed="max" from="436682108" to="22894723#1"/>
    <trip id="veh382" type="veh_passenger" depart="164.20" departLane="best" from="461097292#1" to="165087293#1"/>
    <trip id="veh384" type="veh_passenger" depart="165.06" departLane="best" from="460561514#1" to="165087293#0"/>
    <trip id="veh389" type="veh_passenger" depart="167.21" departLane="best" departSpeed="max" from="-483638949#1" to="965359270"/>
    <trip id="veh390" type="veh_passenger" depart="167.64" departLane="best" from="965359271" to="452245665#3"/>
    <trip id="veh393" type="veh_passenger" depart="168.93" departLane="best" from="1176284082#0" to="1000624456"/>
    <trip id="veh395" type="veh_passenger" depart="169.79" departLane="best" from="436693572#2" to="165087293#1"/>
    <trip id="veh397" type="veh_passenger" depart="170.65" departLane="best" from="436693564#1" to="436695031#1"/>
    <trip id="veh400" type="veh_passenger" depart="171.94" departLane="best" from="293998818#2" to="452245665#3"/>
    <trip id="veh401" type="veh_passenger" depart="172.37" departLane="best" departSpeed="max" from="965359259" to="452246358#3"/>
    <trip id="veh403" type="veh_passenger" depart="173.23" departLane="best" from="293998818#1" to="452245665#2"/>
    <trip id="veh404" type="veh_passenger" depart="173.66" departLane="best" from="965382833#2" to="452636498#7"/>
    <trip id="veh405" type="veh_passenger" depart="174.09" departLane="best" departSpeed="max" from="436682108" to="484667608"/>
    <trip id="veh412" type="veh_passenger" depart="177.09" departLane="best" departSpeed="max" from="965359259" to="1176284081#2"/>
    <trip id="veh413" type="veh_passenger" depart="177.52" departLane="best" departSpeed="max" from="436682108" to="165087293#1"/>
    <trip id="veh414" type="veh_passenger" depart="177.95" departLane="best" from="965359267" to="461097294#0"/>
    <trip id="veh415" type="veh_passenger" depart="178.38" departLane="best" departSpeed="max" from="965359259" to="165087293#1"/>
    <trip id="veh416" type="veh_passenger" depart="178.81" departLane="best" from="436693564#0" to="38323569#1"/>
    <trip id="veh418" type="veh_passenger" depart="179.67" departLane="best" from="436693564#1" to="22894721#1"/>
    <trip id="veh421" type="veh_passenger" depart="180.96" departLane="best" from="436693568#0" to="22894721#1"/>
    <trip id="veh422" type="veh_passenger" depart="181.39" departLane="best" departSpeed="max" from="436682108" to="436695031#1"/>
    <trip id="veh423" type="veh_passenger" depart="181.82" departLane="best" departSpeed="max" from="965359259" to="1176284082#0"/>
    <trip id="veh427" type="veh_passenger" depart="183.54" departLane="best" departSpeed="max" from="965359259" to="22894597#0"/>
    <trip id="veh428" type="veh_passenger" depart="183.97" departLane="best" from="436693564#0" to="965382811#1"/>
    <trip id="veh433" type="veh_passenger" depart="186.12" departLane="best" departSpeed="max" from="436682108" to="-452636498#2"/>
    <trip id="veh434" type="veh_passenger" depart="186.55" departLane="best" from="1176284081#2" to="22894721#1"/>
    <trip id="veh435" type="veh_passenger" depart="186.98" departLane="best" from="965359267" to="452636498#7"/>
    <trip id="veh436" type="veh_passenger" depart="187.41" departLane="best" from="1176284081#2" to="452636498#7"/>
    <trip id="veh440" type="veh_passenger" depart="189.13" departLane="best" departSpeed="max" from="436682108" to="484667608"/>
    <trip id="veh441" type="veh_passenger" depart="189.56" departLane="best" from="436693568#0" to="1028542371#2"/>
    <trip id="veh449" type="veh_passenger" depart="193.00" departLane="best" departSpeed="max" from="965359259" to="452245665#2"/>
    <trip id="veh450" type="veh_passenger" depart="193.43" departLane="best" departSpeed="max" from="517282317#0" to="452245665#3"/>
    <trip id="veh453" type="veh_passenger" depart="194.72" departLane="best" from="436693568#1" to="452636498#7"/>
    <trip id="veh455" type="veh_passenger" depart="195.58" departLane="best" from="436693568#0" to="22894721#1"/>
    <trip id="veh459" type="veh_passenger" depart="197.30" departLane="best" from="517282317#2" to="165087293#1"/>
    <trip id="veh460" type="veh_passenger" depart="197.73" departLane="best" from="436682107" to="483638949#1"/>
    <trip id="veh461" type="veh_passenger" depart="198.16" departLane="best" from="965376408#1" to="38323569#1"/>
    <trip id="veh463" type="veh_passenger" depart="199.02" departLane="best" departSpeed="max" from="436693572#0" to="965376412#2"/>
    <trip id="veh464" type="veh_passenger" depart="199.45" departLane="best" departSpeed="max" from="517282317#0" to="1000624457#1"/>
    <trip id="veh467" type="veh_passenger" depart="200.74" departLane="best" from="22894740#1" to="452245665#3"/>
    <trip id="veh468" type="veh_passenger" depart="201.17" departLane="best" from="436693564#0" to="452636498#7"/>
    <trip id="veh469" type="veh_passenger" depart="201.60" departLane="best" departSpeed="max" from="965939908#0" to="22894597#1"/>
    <trip id="veh472" type="veh_passenger" depart="202.88" departLane="best" departSpeed="max" from="965359259" to="452636498#3"/>
    <trip id="veh474" type="veh_passenger" depart="203.74" departLane="best" departSpeed="max" from="436682108" to="38323569#1"/>
    <trip id="veh478" type="veh_passenger" depart="205.46" departLane="best" departSpeed="max" from="436682108" to="-452636498#0"/>
    <trip id="veh480" type="veh_passenger" depart="206.32" departLane="best" departSpeed="max" from="22894723#0" to="22894594#2"/>
    <trip id="veh482" type="veh_passenger" depart="207.18" departLane="best" departSpeed="max" from="-484667608" to="452636498#7"/>
    <trip id="veh483" type="veh_passenger" depart="207.61" departLane="best" from="436682105" to="1000624457#0"/>
    <trip id="veh484" type="veh_passenger" depart="208.04" departLane="best" departSpeed="max" from="965359259" to="436695031#0"/>
    <trip id="veh487" type="veh_passenger" depart="209.33" departLane="best" departSpeed="max" from="436682108" to="517282315#1"/>
    <trip id="veh490" type="veh_passenger" depart="210.62" departLane="best" from="965359267" to="1000624457#1"/>